data/nesta/nesta_case1460wp_eir.m
%%%%%%%%%%%%%%%%%%%%%%%%%%%%%%%%%%%%%%%%%%%%%%%%%%%%%%%%%%%%%%%%%%%%%%%%%%%
%%%%                                                                  %%%%%
%%%%      NICTA Energy System Test Case Archive (NESTA) - v0.1.5      %%%%%
%%%%              Optimal Power Flow - Typical Operation              %%%%%
%%%%                       30 - October - 2014                        %%%%%
%%%%                                                                  %%%%%
%%%%%%%%%%%%%%%%%%%%%%%%%%%%%%%%%%%%%%%%%%%%%%%%%%%%%%%%%%%%%%%%%%%%%%%%%%%
%
%  EIRGrid - Winter Peak 2013-14
%
%  Based on data from:
%    "Ten Year Transmission Forecast Statement 2013"
%    http://www.eirgrid.com/transmission/transmissionforecaststatement/
%    Accessed: 25/8/2014
%  
%  WARNING: This is a preliminary translation from a PSS/E-30 file.
%    The network produces AC Power Flow solutions, but has not been 
%    validated to PSS/E.  See the end of this file for detailed 
%    translation notes.
%
function mpc = nesta_case1460wp_eir
mpc.version = '2';
mpc.baseMVA = 100.0;

%% bus data
%	bus_i	type	Pd	Qd	Gs	Bs	area	Vm	Va	baseKV	zone	Vmax	Vmin
mpc.bus = [
	10	 1	 70.14	 11.64	 0.0	 0.0	 2	     1.0655	     0.0000	 38.0	 1	     1.1500	     0.8500;
	11	 1	 43.49	 8.64	 0.0	 0.0	 2	     1.0736	     0.0000	 38.0	 1	     1.1500	     0.8500;
	12	 1	 57.24	 18.82	 0.0	 0.0	 1	     1.0531	     0.0000	 38.0	 1	     1.1500	     0.8500;
	13	 1	 67.28	 22.11	 0.0	 0.0	 1	     1.0709	     0.0000	 38.0	 1	     1.1500	     0.8500;
	14	 1	 49.56	 16.29	 0.0	 0.0	 2	     1.0531	     0.0000	 38.0	 1	     1.1500	     0.8500;
	15	 1	 64.71	 21.26	 0.0	 0.0	 2	     1.0621	     0.0000	 38.0	 1	     1.1500	     0.8500;
	1021	 1	 0.0	 0.0	 0.0	 0.0	 4	     1.0500	     0.0000	 110.0	 1	     1.1500	     0.8500;
	1041	 1	 0.75	 0.43	 0.0	 0.0	 3	     1.0380	     0.0000	 110.0	 1	     1.1500	     0.8500;
	1042	 1	 0.0	 0.0	 0.0	 0.0	 3	     1.0400	     0.0000	 220.0	 1	     1.1500	     0.8500;
	1052	 1	 0.0	 0.0	 0.0	 0.0	 3	     1.0406	     0.0000	 220.0	 1	     1.1500	     0.8500;
	1061	 1	 0.0	 0.0	 0.0	 0.0	 9	     1.0468	     0.0000	 110.0	 1	     1.1500	     0.8500;
	1062	 1	 0.0	 0.0	 0.0	 0.0	 3	     1.0400	     0.0000	 220.0	 1	     1.1500	     0.8500;
	1071	 1	 0.0	 0.0	 0.0	 0.0	 4	     1.0627	     0.0000	 110.0	 1	     1.1500	     0.8500;
	1072	 1	 0.0	 0.0	 0.0	 0.0	 3	     1.0399	     0.0000	 220.0	 1	     1.1500	     0.8500;
	1081	 1	 0.0	 0.0	 0.0	 0.0	 7	     1.0498	     0.0000	 110.0	 1	     1.1500	     0.8500;
	1101	 1	 16.62	 4.98	 0.0	 0.0	 5	     1.0472	     0.0000	 110.0	 1	     1.1500	     0.8500;
	1121	 1	 0.0	 0.0	 0.0	 0.0	 6	     1.0646	     0.0000	 110.0	 1	     1.1500	     0.8500;
	1122	 1	 0.0	 0.0	 0.0	 0.0	 6	     1.0646	     0.0000	 220.0	 1	     1.1500	     0.8500;
	1131	 1	 0.0	 0.0	 0.0	 0.0	 7	     1.0536	     0.0000	 110.0	 1	     1.1500	     0.8500;
	1141	 1	 0.0	 0.0	 0.0	 0.0	 9	     1.0631	     0.0000	 110.0	 1	     1.1500	     0.8500;
	1151	 1	 0.0	 0.0	 0.0	 0.0	 7	     1.0536	     0.0000	 110.0	 1	     1.1500	     0.8500;
	1161	 1	 0.0	 0.0	 0.0	 0.0	 7	     1.0500	     0.0000	 110.0	 1	     1.1500	     0.8500;
	1181	 1	 0.0	 0.0	 0.0	 0.0	 10	     1.0419	     0.0000	 110.0	 1	     1.1500	     0.8500;
	1201	 1	 0.0	 0.0	 0.0	 0.0	 1	     1.0648	     0.0000	 110.0	 1	     1.1500	     0.8500;
	1221	 1	 0.0	 0.0	 0.0	 0.0	 8	     1.0475	     0.0000	 110.0	 1	     1.1500	     0.8500;
	1231	 1	 0.0	 0.0	 0.0	 0.0	 6	     1.0667	     0.0000	 110.0	 1	     1.1500	     0.8500;
	1251	 1	 0.0	 0.0	 0.0	 0.0	 4	     1.0406	     0.0000	 110.0	 1	     1.1500	     0.8500;
	1271	 1	 0.0	 0.0	 0.0	 0.0	 10	     1.0429	     0.0000	 110.0	 1	     1.1500	     0.8500;
	1281	 1	 0.0	 0.0	 0.0	 0.0	 3	     1.0313	     0.0000	 110.0	 1	     1.1500	     0.8500;
	1301	 1	 0.0	 0.0	 0.0	 0.0	 6	     1.0582	     0.0000	 110.0	 1	     1.1500	     0.8500;
	1321	 1	 0.0	 0.0	 0.0	 0.0	 8	     1.0434	     0.0000	 110.0	 1	     1.1500	     0.8500;
	1341	 1	 0.0	 0.0	 0.0	 0.0	 9	     1.0340	     0.0000	 110.0	 1	     1.1500	     0.8500;
	1351	 1	 0.0	 0.0	 0.0	 0.0	 8	     1.0466	     0.0000	 110.0	 1	     1.1500	     0.8500;
	1361	 1	 0.0	 0.0	 0.0	 0.0	 5	     1.0459	     0.0000	 110.0	 1	     1.1500	     0.8500;
	1381	 1	 0.0	 0.0	 0.0	 0.0	 3	     1.0355	     0.0000	 110.0	 1	     1.1500	     0.8500;
	1391	 1	 0.0	 0.0	 0.0	 0.0	 3	     1.0315	     0.0000	 110.0	 1	     1.1500	     0.8500;
	1401	 1	 0.0	 0.0	 0.0	 0.0	 9	     1.0516	     0.0000	 110.0	 1	     1.1500	     0.8500;
	1421	 1	 0.0	 0.0	 0.0	 0.0	 1	     1.0491	     0.0000	 110.0	 1	     1.1500	     0.8500;
	1441	 1	 0.0	 0.0	 0.0	 0.0	 3	     1.0246	     0.0000	 110.0	 1	     1.1500	     0.8500;
	1451	 1	 0.0	 0.0	 0.0	 0.0	 1	     1.0529	     0.0000	 110.0	 1	     1.1500	     0.8500;
	1461	 1	 0.0	 0.0	 0.0	 0.0	 5	     1.0357	     0.0000	 110.0	 1	     1.1500	     0.8500;
	1481	 1	 0.0	 0.0	 0.0	 0.0	 5	     1.0541	     0.0000	 110.0	 1	     1.1500	     0.8500;
	1501	 1	 0.0	 0.0	 0.0	 0.0	 3	     1.0244	     0.0000	 110.0	 1	     1.1500	     0.8500;
	1541	 1	 0.0	 0.0	 0.0	 0.0	 6	     1.0616	     0.0000	 110.0	 1	     1.1500	     0.8500;
	1551	 1	 0.0	 0.0	 0.0	 0.0	 3	     1.0500	     0.0000	 110.0	 1	     1.1500	     0.8500;
	1581	 1	 0.0	 0.0	 0.0	 0.0	 1	     1.0640	     0.0000	 110.0	 1	     1.1500	     0.8500;
	1601	 1	 0.0	 0.0	 0.0	 0.0	 3	     1.0430	     0.0000	 110.0	 1	     1.1500	     0.8500;
	1602	 1	 0.0	 0.0	 0.0	 0.0	 3	     1.0484	     0.0000	 220.0	 1	     1.1500	     0.8500;
	1611	 1	 0.0	 0.0	 0.0	 0.0	 7	     1.0496	     0.0000	 110.0	 1	     1.1500	     0.8500;
	1621	 1	 0.0	 0.0	 0.0	 0.0	 3	     1.0363	     0.0000	 110.0	 1	     1.1500	     0.8500;
	1631	 1	 0.0	 0.0	 0.0	 0.0	 9	     1.0504	     0.0000	 110.0	 1	     1.1500	     0.8500;
	1641	 1	 0.0	 0.0	 0.0	 0.0	 9	     1.0608	     0.0000	 110.0	 1	     1.1500	     0.8500;
	1642	 1	 0.0	 0.0	 0.0	 0.0	 9	     1.0602	     0.0000	 220.0	 1	     1.1500	     0.8500;
	1651	 1	 0.0	 0.0	 0.0	 0.0	 7	     1.0614	     0.0000	 110.0	 1	     1.1500	     0.8500;
	1661	 1	 0.0	 0.0	 0.0	 0.0	 9	     1.0500	     0.0000	 110.0	 1	     1.1500	     0.8500;
	1681	 1	 0.0	 0.0	 0.0	 0.0	 3	     1.0391	     0.0000	 110.0	 1	     1.1500	     0.8500;
	1691	 1	 0.0	 0.0	 0.0	 0.0	 1	     1.0522	     0.0000	 110.0	 1	     1.1500	     0.8500;
	1701	 1	 0.0	 0.0	 0.0	 0.0	 9	     1.0500	     0.0000	 110.0	 1	     1.1500	     0.8500;
	1711	 1	 0.0	 0.0	 0.0	 0.0	 1	     1.0595	     0.0000	 110.0	 1	     1.1500	     0.8500;
	1721	 1	 0.0	 0.0	 0.0	 0.0	 5	     1.0531	     0.0000	 110.0	 1	     1.1500	     0.8500;
	1731	 1	 0.0	 0.0	 0.0	 0.0	 1	     1.0595	     0.0000	 110.0	 1	     1.1500	     0.8500;
	1741	 1	 0.0	 0.0	 0.0	 0.0	 2	     1.0523	     0.0000	 110.0	 1	     1.1500	     0.8500;
	1742	 1	 0.0	 0.0	 0.0	 0.0	 2	     1.0639	     0.0000	 220.0	 1	     1.1500	     0.8500;
	1761	 1	 0.0	 0.0	 0.0	 0.0	 9	     1.0521	     0.0000	 110.0	 1	     1.1500	     0.8500;
	1781	 1	 0.0	 0.0	 0.0	 0.0	 7	     1.0496	     0.0000	 110.0	 1	     1.1500	     0.8500;
	1801	 1	 0.0	 0.0	 0.0	 0.0	 1	     1.0524	     0.0000	 110.0	 1	     1.1500	     0.8500;
	1821	 1	 0.0	 0.0	 0.0	 0.0	 9	     1.0533	     0.0000	 110.0	 1	     1.1500	     0.8500;
	1841	 1	 0.0	 0.0	 0.0	 0.0	 6	     1.0654	     0.0000	 110.0	 1	     1.1500	     0.8500;
	1861	 1	 0.0	 0.0	 0.0	 0.0	 9	     1.0460	     0.0000	 110.0	 1	     1.1500	     0.8500;
	1871	 1	 0.0	 0.0	 0.0	 0.0	 2	     1.0552	     0.0000	 110.0	 1	     1.1500	     0.8500;
	1881	 1	 0.0	 0.0	 0.0	 0.0	 3	     1.0343	     0.0000	 110.0	 1	     1.1500	     0.8500;
	1901	 1	 0.0	 0.0	 0.0	 0.0	 6	     1.0561	     0.0000	 110.0	 1	     1.1500	     0.8500;
	1911	 1	 0.0	 0.0	 0.0	 0.0	 9	     1.0631	     0.0000	 110.0	 1	     1.1500	     0.8500;
	1921	 1	 0.0	 0.0	 0.0	 0.0	 3	     1.0344	     0.0000	 110.0	 1	     1.1500	     0.8500;
	1931	 1	 0.0	 0.0	 0.0	 0.0	 9	     1.0512	     0.0000	 110.0	 1	     1.1500	     0.8500;
	1941	 1	 0.0	 0.0	 0.0	 0.0	 8	     1.0750	     0.0000	 110.0	 1	     1.1500	     0.8500;
	1951	 1	 0.0	 0.0	 0.0	 0.0	 9	     1.0393	     0.0000	 110.0	 1	     1.1500	     0.8500;
	1961	 1	 0.0	 0.0	 0.0	 0.0	 3	     1.0338	     0.0000	 110.0	 1	     1.1500	     0.8500;
	1971	 1	 0.0	 0.0	 0.0	 0.0	 7	     1.0500	     0.0000	 110.0	 1	     1.1500	     0.8500;
	1981	 1	 0.0	 0.0	 0.0	 0.0	 9	     1.0452	     0.0000	 110.0	 1	     1.1500	     0.8500;
	1991	 1	 0.0	 0.0	 0.0	 0.0	 6	     1.0669	     0.0000	 110.0	 1	     1.1500	     0.8500;
	2001	 1	 0.0	 0.0	 0.0	 0.0	 5	     1.0567	     0.0000	 110.0	 1	     1.1500	     0.8500;
	2002	 1	 0.0	 0.0	 0.0	 0.0	 5	     1.0648	     0.0000	 220.0	 1	     1.1500	     0.8500;
	2021	 1	 0.0	 0.0	 0.0	 0.0	 1	     1.0295	     0.0000	 110.0	 1	     1.1500	     0.8500;
	2041	 1	 0.0	 0.0	 0.0	 0.0	 2	     1.0557	     0.0000	 110.0	 1	     1.1500	     0.8500;
	2042	 1	 0.0	 0.0	 0.0	 0.0	 2	     1.0750	     0.0000	 220.0	 1	     1.1500	     0.8500;
	2052	 1	 0.0	 0.0	 0.0	 0.0	 2	     1.0750	     0.0000	 220.0	 1	     1.1500	     0.8500;
	2081	 4	 0.0	 0.0	 0.0	 0.0	 3	     1.0000	     0.0000	 110.0	 1	     1.1500	     0.8500;
	2101	 1	 0.0	 0.0	 0.0	 0.0	 10	     1.0363	     0.0000	 110.0	 1	     1.1500	     0.8500;
	2121	 1	 0.0	 0.0	 0.0	 0.0	 4	     1.0446	     0.0000	 110.0	 1	     1.1500	     0.8500;
	2131	 1	 0.0	 0.0	 0.0	 0.0	 3	     1.0529	     0.0000	 110.0	 1	     1.1500	     0.8500;
	2141	 1	 0.0	 0.0	 0.0	 0.0	 5	     1.0362	     0.0000	 110.0	 1	     1.1500	     0.8500;
	2161	 1	 0.0	 0.0	 0.0	 0.0	 5	     1.0480	     0.0000	 110.0	 1	     1.1500	     0.8500;
	2181	 1	 0.0	 0.0	 0.0	 0.0	 10	     1.0316	     0.0000	 110.0	 1	     1.1500	     0.8500;
	2202	 1	 0.0	 0.0	 0.0	 0.0	 2	     1.0629	     0.0000	 220.0	 1	     1.1500	     0.8500;
	2204	 1	 0.0	 0.0	 0.0	 0.0	 2	     1.0296	     0.0000	 380.0	 1	     1.1500	     0.8500;
	2221	 1	 0.0	 0.0	 0.0	 0.0	 3	     1.0288	     0.0000	 110.0	 1	     1.1500	     0.8500;
	2231	 1	 0.0	 0.0	 0.0	 0.0	 4	     1.0646	     0.0000	 110.0	 1	     1.1500	     0.8500;
	2241	 1	 0.0	 0.0	 0.0	 0.0	 5	     1.0631	     0.0000	 110.0	 1	     1.1500	     0.8500;
	2251	 1	 0.0	 0.0	 0.0	 0.0	 1	     1.0602	     0.0000	 110.0	 1	     1.1500	     0.8500;
	2261	 1	 0.0	 0.0	 0.0	 0.0	 8	     1.0428	     0.0000	 110.0	 1	     1.1500	     0.8500;
	2281	 1	 0.0	 0.0	 0.0	 0.0	 9	     1.0425	     0.0000	 110.0	 1	     1.1500	     0.8500;
	2301	 1	 0.0	 0.0	 0.0	 0.0	 8	     1.0446	     0.0000	 110.0	 1	     1.1500	     0.8500;
	2321	 1	 0.0	 0.0	 0.0	 0.0	 9	     1.0324	     0.0000	 110.0	 1	     1.1500	     0.8500;
	2361	 1	 0.0	 0.0	 0.0	 0.0	 4	     1.0416	     0.0000	 110.0	 1	     1.1500	     0.8500;
	2401	 1	 0.0	 0.0	 0.0	 0.0	 8	     1.0552	     0.0000	 110.0	 1	     1.1500	     0.8500;
	2481	 1	 0.0	 0.0	 0.0	 0.0	 2	     1.0461	     0.0000	 110.0	 1	     1.1500	     0.8500;
	2491	 1	 0.0	 0.0	 0.0	 0.0	 2	     1.0459	     0.0000	 110.0	 1	     1.1500	     0.8500;
	2521	 1	 0.0	 0.0	 0.0	 0.0	 9	     1.0472	     0.0000	 110.0	 1	     1.1500	     0.8500;
	2522	 1	 0.0	 0.0	 0.0	 0.0	 9	     1.0494	     0.0000	 220.0	 1	     1.1500	     0.8500;
	2541	 1	 0.0	 0.0	 0.0	 0.0	 1	     1.0585	     0.0000	 110.0	 1	     1.1500	     0.8500;
	2551	 1	 0.0	 0.0	 0.0	 0.0	 1	     1.0564	     0.0000	 110.0	 1	     1.1500	     0.8500;
	2561	 1	 0.0	 0.0	 0.0	 0.0	 2	     1.0664	     0.0000	 110.0	 1	     1.1500	     0.8500;
	2562	 1	 0.0	 0.0	 0.0	 0.0	 2	     1.0750	     0.0000	 220.0	 1	     1.1500	     0.8500;
	2563	 1	 0.0	 0.0	 0.0	 0.0	 2	     1.0750	     0.0000	 220.0	 1	     1.1500	     0.8500;
	2571	 1	 0.0	 0.0	 0.0	 0.0	 2	     1.0611	     0.0000	 110.0	 1	     1.1500	     0.8500;
	2581	 1	 0.0	 0.0	 0.0	 0.0	 2	     1.0544	     0.0000	 110.0	 1	     1.1500	     0.8500;
	2671	 1	 0.0	 0.0	 0.0	 0.0	 9	     1.0504	     0.0000	 110.0	 1	     1.1500	     0.8500;
	2681	 1	 0.0	 0.0	 0.0	 0.0	 9	     1.0492	     0.0000	 110.0	 1	     1.1500	     0.8500;
	2701	 1	 0.0	 0.0	 0.0	 0.0	 1	     1.0389	     0.0000	 110.0	 1	     1.1500	     0.8500;
	2721	 1	 0.0	 0.0	 0.0	 0.0	 2	     1.0464	     0.0000	 110.0	 1	     1.1500	     0.8500;
	2731	 1	 0.0	 0.0	 0.0	 0.0	 7	     1.0500	     0.0000	 110.0	 1	     1.1500	     0.8500;
	2741	 1	 0.0	 0.0	 0.0	 0.0	 6	     1.0627	     0.0000	 110.0	 1	     1.1500	     0.8500;
	2742	 1	 0.0	 0.0	 0.0	 0.0	 6	     1.0750	     0.0000	 220.0	 1	     1.1500	     0.8500;
	2761	 1	 0.0	 0.0	 0.0	 0.0	 1	     1.0589	     0.0000	 110.0	 1	     1.1500	     0.8500;
	2771	 1	 0.0	 0.0	 0.0	 0.0	 7	     1.0512	     0.0000	 110.0	 1	     1.1500	     0.8500;
	2780	 1	 0.0	 0.0	 0.0	 0.0	 9	     1.0497	     0.0000	 110.0	 1	     1.1500	     0.8500;
	2781	 1	 0.0	 0.0	 0.0	 0.0	 9	     1.0497	     0.0000	 110.0	 1	     1.1500	     0.8500;
	2801	 1	 0.0	 0.0	 0.0	 0.0	 9	     1.0384	     0.0000	 110.0	 1	     1.1500	     0.8500;
	2821	 1	 0.0	 0.0	 0.0	 0.0	 9	     1.0437	     0.0000	 110.0	 1	     1.1500	     0.8500;
	2841	 1	 0.0	 0.0	 0.0	 0.0	 10	     1.0283	     0.0000	 110.0	 1	     1.1500	     0.8500;
	2842	 1	 0.0	 0.0	 0.0	 0.0	 10	     1.0423	     0.0000	 220.0	 1	     1.1500	     0.8500;
	2852	 1	 0.0	 0.0	 0.0	 0.0	 3	     1.0405	     0.0000	 220.0	 1	     1.1500	     0.8500;
	2861	 1	 0.0	 0.0	 0.0	 0.0	 1	     1.0317	     0.0000	 110.0	 1	     1.1500	     0.8500;
	2881	 1	 0.0	 0.0	 0.0	 0.0	 3	     1.0476	     0.0000	 110.0	 1	     1.1500	     0.8500;
	2941	 1	 0.0	 0.0	 0.0	 0.0	 1	     1.0588	     0.0000	 110.0	 1	     1.1500	     0.8500;
	2951	 1	 0.0	 0.0	 0.0	 0.0	 1	     1.0566	     0.0000	 110.0	 1	     1.1500	     0.8500;
	2962	 1	 0.0	 0.0	 0.0	 0.0	 2	     1.0755	     0.0000	 220.0	 1	     1.1500	     0.8500;
	2972	 1	 0.0	 0.0	 0.0	 0.0	 2	     1.0768	     0.0000	 220.0	 1	     1.1500	     0.8500;
	3061	 1	 0.0	 0.0	 0.0	 0.0	 3	     1.0380	     0.0000	 110.0	 1	     1.1500	     0.8500;
	3081	 1	 0.0	 0.0	 0.0	 0.0	 2	     1.0571	     0.0000	 110.0	 1	     1.1500	     0.8500;
	3082	 1	 0.0	 0.0	 0.0	 0.0	 2	     1.0670	     0.0000	 220.0	 1	     1.1500	     0.8500;
	3091	 1	 0.0	 0.0	 0.0	 0.0	 2	     1.0364	     0.0000	 110.0	 1	     1.1500	     0.8500;
	3101	 1	 0.0	 0.0	 0.0	 0.0	 5	     1.0550	     0.0000	 110.0	 1	     1.1500	     0.8500;
	3122	 1	 0.0	 0.0	 0.0	 0.0	 2	     1.0706	     0.0000	 220.0	 1	     1.1500	     0.8500;
	3200	 1	 0.0	 0.0	 0.0	 0.0	 3	     1.0374	     0.0000	 110.0	 1	     1.1500	     0.8500;
	3201	 1	 0.0	 0.0	 0.0	 0.0	 3	     1.0374	     0.0000	 110.0	 1	     1.1500	     0.8500;
	3202	 1	 0.0	 0.0	 0.0	 0.0	 3	     1.0410	     0.0000	 220.0	 1	     1.1500	     0.8500;
	3203	 1	 0.0	 0.0	 0.0	 0.0	 3	     1.0440	     0.0000	 220.0	 1	     1.1500	     0.8500;
	3209	 1	 0.0	 0.0	 0.0	 0.0	 3	     1.0374	     0.0000	 110.0	 1	     1.1500	     0.8500;
	3221	 1	 0.0	 0.0	 0.0	 0.0	 3	     1.0284	     0.0000	 110.0	 1	     1.1500	     0.8500;
	3241	 1	 0.0	 0.0	 0.0	 0.0	 8	     1.0497	     0.0000	 110.0	 1	     1.1500	     0.8500;
	3251	 1	 0.0	 0.0	 0.0	 0.0	 7	     1.0582	     0.0000	 110.0	 1	     1.1500	     0.8500;
	3261	 1	 0.0	 0.0	 0.0	 0.0	 6	     1.0494	     0.0000	 110.0	 1	     1.1500	     0.8500;
	3281	 1	 0.0	 0.0	 0.0	 0.0	 7	     1.0501	     0.0000	 110.0	 1	     1.1500	     0.8500;
	3282	 1	 0.0	 0.0	 0.0	 0.0	 7	     1.0454	     0.0000	 220.0	 1	     1.1500	     0.8500;
	3301	 1	 0.0	 0.0	 0.0	 0.0	 7	     1.0453	     0.0000	 110.0	 1	     1.1500	     0.8500;
	3321	 1	 0.0	 0.0	 0.0	 0.0	 10	     1.0190	     0.0000	 110.0	 1	     1.1500	     0.8500;
	3341	 1	 0.0	 0.0	 0.0	 0.0	 6	     1.0620	     0.0000	 110.0	 1	     1.1500	     0.8500;
	3342	 1	 0.0	 0.0	 0.0	 0.0	 6	     1.0552	     0.0000	 220.0	 1	     1.1500	     0.8500;
	3361	 1	 0.0	 0.0	 0.0	 0.0	 9	     1.0269	     0.0000	 110.0	 1	     1.1500	     0.8500;
	3381	 1	 0.0	 0.0	 0.0	 0.0	 8	     1.0415	     0.0000	 110.0	 1	     1.1500	     0.8500;
	3391	 1	 0.0	 0.0	 0.0	 0.0	 3	     1.0500	     0.0000	 110.0	 1	     1.1500	     0.8500;
	3401	 1	 0.0	 0.0	 0.0	 0.0	 5	     1.0552	     0.0000	 110.0	 1	     1.1500	     0.8500;
	3421	 1	 0.0	 0.0	 0.0	 0.0	 1	     1.0594	     0.0000	 110.0	 1	     1.1500	     0.8500;
	3431	 1	 0.0	 0.0	 0.0	 0.0	 1	     1.0314	     0.0000	 110.0	 1	     1.1500	     0.8500;
	3501	 1	 0.0	 0.0	 0.0	 0.0	 9	     1.0500	     0.0000	 110.0	 1	     1.1500	     0.8500;
	3521	 1	 0.0	 0.0	 0.0	 0.0	 10	     1.0613	     0.0000	 110.0	 1	     1.1500	     0.8500;
	3522	 1	 0.0	 0.0	 0.0	 0.0	 10	     1.0384	     0.0000	 220.0	 1	     1.1500	     0.8500;
	3541	 1	 0.0	 0.0	 0.0	 0.0	 7	     1.0444	     0.0000	 110.0	 1	     1.1500	     0.8500;
	3561	 1	 0.0	 0.0	 0.0	 0.0	 10	     1.0545	     0.0000	 110.0	 1	     1.1500	     0.8500;
	3581	 1	 0.0	 0.0	 0.0	 0.0	 9	     1.0268	     0.0000	 110.0	 1	     1.1500	     0.8500;
	3601	 1	 0.0	 0.0	 0.0	 0.0	 3	     1.0268	     0.0000	 110.0	 1	     1.1500	     0.8500;
	3611	 1	 0.0	 0.0	 0.0	 0.0	 3	     1.0271	     0.0000	 110.0	 1	     1.1500	     0.8500;
	3621	 1	 0.0	 0.0	 0.0	 0.0	 5	     1.0500	     0.0000	 110.0	 1	     1.1500	     0.8500;
	3641	 1	 0.0	 0.0	 0.0	 0.0	 6	     1.0673	     0.0000	 110.0	 1	     1.1500	     0.8500;
	3642	 1	 0.0	 0.0	 0.0	 0.0	 6	     1.0690	     0.0000	 220.0	 1	     1.1500	     0.8500;
	3651	 1	 0.0	 0.0	 0.0	 0.0	 5	     1.0673	     0.0000	 110.0	 1	     1.1500	     0.8500;
	3751	 1	 0.0	 0.0	 0.0	 0.0	 1	     1.0593	     0.0000	 110.0	 1	     1.1500	     0.8500;
	3761	 1	 0.0	 0.0	 0.0	 0.0	 1	     1.0535	     0.0000	 110.0	 1	     1.1500	     0.8500;
	3781	 1	 0.0	 0.0	 0.0	 0.0	 1	     1.0642	     0.0000	 110.0	 1	     1.1500	     0.8500;
	3801	 1	 0.0	 0.0	 0.0	 0.0	 3	     1.0318	     0.0000	 110.0	 1	     1.1500	     0.8500;
	3821	 1	 0.0	 0.0	 0.0	 0.0	 10	     1.0270	     0.0000	 110.0	 1	     1.1500	     0.8500;
	3841	 1	 0.0	 0.0	 0.0	 0.0	 2	     1.0489	     0.0000	 110.0	 1	     1.1500	     0.8500;
	3842	 1	 0.0	 0.0	 0.0	 0.0	 2	     1.0589	     0.0000	 220.0	 1	     1.1500	     0.8500;
	3851	 1	 0.0	 0.0	 0.0	 0.0	 2	     1.0531	     0.0000	 110.0	 1	     1.1500	     0.8500;
	3852	 1	 0.0	 0.0	 0.0	 0.0	 2	     1.0657	     0.0000	 220.0	 1	     1.1500	     0.8500;
	3861	 1	 0.0	 0.0	 0.0	 0.0	 1	     1.0595	     0.0000	 110.0	 1	     1.1500	     0.8500;
	3871	 1	 0.0	 0.0	 0.0	 0.0	 1	     1.0531	     0.0000	 110.0	 1	     1.1500	     0.8500;
	3881	 1	 0.0	 0.0	 0.0	 0.0	 3	     1.0395	     0.0000	 110.0	 1	     1.1500	     0.8500;
	3901	 1	 0.0	 0.0	 0.0	 0.0	 7	     1.0429	     0.0000	 110.0	 1	     1.1500	     0.8500;
	3934	 1	 0.0	 0.0	 0.0	 0.0	 4	     1.0500	     0.0000	 380.0	 1	     1.1500	     0.8500;
	3941	 1	 0.0	 0.0	 0.0	 0.0	 4	     1.0343	     0.0000	 110.0	 1	     1.1500	     0.8500;
	3942	 1	 0.0	 0.0	 0.0	 0.0	 4	     1.0686	     0.0000	 220.0	 1	     1.1500	     0.8500;
	3944	 1	 0.0	 0.0	 0.0	 0.0	 4	     1.0500	     0.0000	 380.0	 1	     1.1500	     0.8500;
	3954	 1	 0.0	 0.0	 0.0	 0.0	 4	     1.0500	     0.0000	 380.0	 1	     1.1500	     0.8500;
	3961	 1	 0.0	 0.0	 0.0	 0.0	 3	     1.0272	     0.0000	 110.0	 1	     1.1500	     0.8500;
	3981	 1	 0.0	 0.0	 0.0	 0.0	 7	     1.0427	     0.0000	 110.0	 1	     1.1500	     0.8500;
	3991	 1	 0.0	 0.0	 0.0	 0.0	 7	     1.0427	     0.0000	 110.0	 1	     1.1500	     0.8500;
	4001	 1	 0.0	 0.0	 0.0	 0.0	 9	     1.0506	     0.0000	 110.0	 1	     1.1500	     0.8500;
...
];

%% generator data
%	bus	Pg	Qg	Qmax	Qmin	Vg	mBase	status	Pmax	Pmin	Pc1	Pc2	Qc1min	Qc1max	Qc2min	Qc2max	ramp_agc	ramp_10	ramp_30	ramp_q	apf
mpc.gen = [
	10271	 21.0	 5.837	 15.0	 -7.0	 1.05	 34.0	 1	 21.0	 5.0	 0.0	 0.0	 0.0	 0.0	 0.0	 0.0	 0.0	 0.0	 0.0	 0.0	 0.0; % COW
	10272	 22.0	 5.837	 15.0	 -7.0	 1.05	 34.0	 1	 22.0	 5.0	 0.0	 0.0	 0.0	 0.0	 0.0	 0.0	 0.0	 0.0	 0.0	 0.0	 0.0; % NG
	10273	 19.0	 -2.507	 15.0	 -7.0	 1.05	 34.0	 0	 19.0	 5.0	 0.0	 0.0	 0.0	 0.0	 0.0	 0.0	 0.0	 0.0	 0.0	 0.0	 0.0; % COW
	10274	 24.0	 5.837	 15.0	 -7.0	 1.05	 34.0	 1	 24.0	 5.0	 0.0	 0.0	 0.0	 0.0	 0.0	 0.0	 0.0	 0.0	 0.0	 0.0	 0.0; % NG
	10275	 2.321	 0.0	 0.0	 0.0	 1.05	 8.35	 1	 7.5	 0.0	 0.0	 0.0	 0.0	 0.0	 0.0	 0.0	 0.0	 0.0	 0.0	 0.0	 0.0; % NG
	10276	 0.204	 0.0	 0.0	 0.0	 1.05	 0.85	 1	 0.66	 0.0	 0.0	 0.0	 0.0	 0.0	 0.0	 0.0	 0.0	 0.0	 0.0	 0.0	 0.0; % PEL
	10470	 300.0	 -32.443	 270.0	 -170.0	 1.04	 500.0	 1	 443.0	 222.0	 0.0	 0.0	 0.0	 0.0	 0.0	 0.0	 0.0	 0.0	 0.0	 0.0	 0.0; % NG
	10471	 270.0	 0.0	 159.0	 -75.0	 1.075	 318.8	 0	 270.0	 40.0	 0.0	 0.0	 0.0	 0.0	 0.0	 0.0	 0.0	 0.0	 0.0	 0.0	 0.0; % NG
	10472	 90.0	 0.0	 60.0	 -30.0	 1.075	 100.9	 0	 90.0	 13.0	 0.0	 0.0	 0.0	 0.0	 0.0	 0.0	 0.0	 0.0	 0.0	 0.0	 0.0; % NG
	10473	 90.0	 0.0	 60.0	 -30.0	 1.075	 100.9	 0	 90.0	 13.0	 0.0	 0.0	 0.0	 0.0	 0.0	 0.0	 0.0	 0.0	 0.0	 0.0	 0.0; % NG
	10474	 90.0	 0.0	 60.0	 -30.0	 1.075	 100.9	 0	 90.0	 13.0	 0.0	 0.0	 0.0	 0.0	 0.0	 0.0	 0.0	 0.0	 0.0	 0.0	 0.0; % NG
	10671	 1.486	 -1.94	 -1.94	 -1.94	 1.04	 4.8	 1	 4.8	 0.0	 0.0	 0.0	 0.0	 0.0	 0.0	 0.0	 0.0	 0.0	 0.0	 0.0	 0.0; % NG
	10672	 1.547	 -2.0	 -2.0	 -2.0	 1.04	 6.0	 1	 5.0	 0.0	 0.0	 0.0	 0.0	 0.0	 0.0	 0.0	 0.0	 0.0	 0.0	 0.0	 0.0; % NG
	10673	 0.371	 -0.48	 -0.48	 -0.48	 1.05	 1.2	 1	 1.2	 0.0	 0.0	 0.0	 0.0	 0.0	 0.0	 0.0	 0.0	 0.0	 0.0	 0.0	 0.0; % NG
	10674	 1.424	 -1.77	 -1.77	 -2.3	 1.04	 4.6	 1	 4.6	 0.0	 0.0	 0.0	 0.0	 0.0	 0.0	 0.0	 0.0	 0.0	 0.0	 0.0	 0.0; % NG
	11204	 1.0	 0.0	 0.0	 0.0	 1.0	 1.6	 0	 1.0	 0.0	 0.0	 0.0	 0.0	 0.0	 0.0	 0.0	 0.0	 0.0	 0.0	 0.0	 0.0; % PEL
	11271	 7.799	 0.0	 0.0	 0.0	 1.04	 28.0	 1	 25.2	 0.0	 0.0	 0.0	 0.0	 0.0	 0.0	 0.0	 0.0	 0.0	 0.0	 0.0	 0.0; % PEL
	11371	 15.784	 -20.0	 20.0	 -20.0	 1.05	 66.0	 1	 51.0	 0.0	 0.0	 0.0	 0.0	 0.0	 0.0	 0.0	 0.0	 0.0	 0.0	 0.0	 0.0; % PEL
	12371	 9.749	 -7.0	 7.0	 -7.0	 1.05	 32.0	 1	 31.5	 0.0	 0.0	 0.0	 0.0	 0.0	 0.0	 0.0	 0.0	 0.0	 0.0	 0.0	 0.0; % COW
	12372	 3.25	 0.0	 0.0	 0.0	 1.05	 10.0	 1	 10.5	 0.0	 0.0	 0.0	 0.0	 0.0	 0.0	 0.0	 0.0	 0.0	 0.0	 0.0	 0.0; % PEL
	12571	 6.019	 0.0	 0.0	 0.0	 1.05	 25.05	 1	 19.45	 0.0	 0.0	 0.0	 0.0	 0.0	 0.0	 0.0	 0.0	 0.0	 0.0	 0.0	 0.0; % NG
	12572	 0.928	 0.99	 0.99	 -0.99	 1.05	 3.34	 1	 3.0	 0.0	 0.0	 0.0	 0.0	 0.0	 0.0	 0.0	 0.0	 0.0	 0.0	 0.0	 0.0; % NG
	12573	 2.785	 2.96	 2.96	 -2.96	 1.05	 10.02	 1	 9.0	 0.0	 0.0	 0.0	 0.0	 0.0	 0.0	 0.0	 0.0	 0.0	 0.0	 0.0	 0.0; % NG
	12872	 2.6	 0.0	 0.0	 -2.76	 1.05	 9.2	 1	 8.4	 0.0	 0.0	 0.0	 0.0	 0.0	 0.0	 0.0	 0.0	 0.0	 0.0	 0.0	 0.0; % NG
	12873	 6.05	 0.0	 0.0	 0.0	 1.05	 20.7	 1	 19.55	 0.0	 0.0	 0.0	 0.0	 0.0	 0.0	 0.0	 0.0	 0.0	 0.0	 0.0	 0.0; % PEL
	12874	 2.631	 0.0	 0.0	 0.0	 1.05	 8.5	 1	 8.5	 0.0	 0.0	 0.0	 0.0	 0.0	 0.0	 0.0	 0.0	 0.0	 0.0	 0.0	 0.0; % COW
	13434	 4.3	 0.0	 0.0	 0.0	 1.0	 4.5	 1	 4.3	 0.0	 0.0	 0.0	 0.0	 0.0	 0.0	 0.0	 0.0	 0.0	 0.0	 0.0	 0.0; % PEL
	13471	 0.204	 0.0	 0.0	 0.0	 1.05	 0.66	 1	 0.66	 0.0	 0.0	 0.0	 0.0	 0.0	 0.0	 0.0	 0.0	 0.0	 0.0	 0.0	 0.0; % PEL
	13472	 0.789	 0.0	 0.0	 -0.84	 1.05	 2.7	 1	 2.55	 0.0	 0.0	 0.0	 0.0	 0.0	 0.0	 0.0	 0.0	 0.0	 0.0	 0.0	 0.0; % NG
	13473	 3.095	 0.0	 0.0	 0.0	 1.05	 10.0	 1	 10.0	 0.0	 0.0	 0.0	 0.0	 0.0	 0.0	 0.0	 0.0	 0.0	 0.0	 0.0	 0.0; % NG
	13474	 1.857	 0.0	 0.0	 0.0	 1.05	 6.25	 1	 6.0	 0.0	 0.0	 0.0	 0.0	 0.0	 0.0	 0.0	 0.0	 0.0	 0.0	 0.0	 0.0; % PEL
	13475	 2.368	 0.0	 0.0	 0.0	 1.05	 7.65	 1	 7.65	 0.0	 0.0	 0.0	 0.0	 0.0	 0.0	 0.0	 0.0	 0.0	 0.0	 0.0	 0.0; % COW
	13476	 3.683	 0.0	 0.0	 0.0	 1.05	 11.5	 1	 11.9	 0.0	 0.0	 0.0	 0.0	 0.0	 0.0	 0.0	 0.0	 0.0	 0.0	 0.0	 0.0; % NG
	13477	 0.789	 0.0	 0.0	 0.0	 1.05	 2.7	 1	 2.55	 0.0	 0.0	 0.0	 0.0	 0.0	 0.0	 0.0	 0.0	 0.0	 0.0	 0.0	 0.0; % PEL
	13479	 1.052	 0.0	 0.0	 0.0	 1.0	 3.4	 1	 3.4	 0.0	 0.0	 0.0	 0.0	 0.0	 0.0	 0.0	 0.0	 0.0	 0.0	 0.0	 0.0; % PEL
	14073	 1.996	 -2.4	 -2.4	 -2.4	 1.04	 7.611	 1	 6.45	 0.0	 0.0	 0.0	 0.0	 0.0	 0.0	 0.0	 0.0	 0.0	 0.0	 0.0	 0.0; % COW
	14471	 1.238	 0.0	 0.0	 0.0	 1.04	 4.0	 1	 4.0	 0.0	 0.0	 0.0	 0.0	 0.0	 0.0	 0.0	 0.0	 0.0	 0.0	 0.0	 0.0; % COW
	14472	 0.085	 0.0	 0.0	 0.0	 1.0	 0.85	 1	 0.85	 0.0	 0.0	 0.0	 0.0	 0.0	 0.0	 0.0	 0.0	 0.0	 0.0	 0.0	 0.0; % NG
	14604	 4.8	 0.0	 0.0	 0.0	 1.05	 7.0	 0	 4.8	 0.0	 0.0	 0.0	 0.0	 0.0	 0.0	 0.0	 0.0	 0.0	 0.0	 0.0	 0.0; % NG
	14871	 0.526	 0.0	 0.0	 0.0	 1.05	 4.6	 1	 1.7	 0.0	 0.0	 0.0	 0.0	 0.0	 0.0	 0.0	 0.0	 0.0	 0.0	 0.0	 0.0; % PEL
	15571	 1.841	 -1.96	 1.96	 -1.96	 1.0	 5.95	 1	 5.95	 0.0	 0.0	 0.0	 0.0	 0.0	 0.0	 0.0	 0.0	 0.0	 0.0	 0.0	 0.0; % PEL
	15572	 5.571	 -3.429	 5.92	 -5.92	 1.0	 18.75	 1	 18.0	 0.0	 0.0	 0.0	 0.0	 0.0	 0.0	 0.0	 0.0	 0.0	 0.0	 0.0	 0.0; % PEL
	15573	 6.19	 0.0	 0.0	 0.0	 1.04	 23.0	 1	 20.0	 0.0	 0.0	 0.0	 0.0	 0.0	 0.0	 0.0	 0.0	 0.0	 0.0	 0.0	 0.0; % PEL
	15771	 0.613	 -0.3	 -0.3	 -0.3	 1.04	 1.98	 1	 1.98	 0.0	 0.0	 0.0	 0.0	 0.0	 0.0	 0.0	 0.0	 0.0	 0.0	 0.0	 0.0; % PEL
	15772	 0.928	 -1.92	 -1.92	 -1.92	 1.04	 3.0	 1	 3.0	 0.0	 0.0	 0.0	 0.0	 0.0	 0.0	 0.0	 0.0	 0.0	 0.0	 0.0	 0.0; % NG
	16371	 1.052	 0.0	 0.0	 0.0	 1.0	 3.4	 1	 3.4	 0.0	 0.0	 0.0	 0.0	 0.0	 0.0	 0.0	 0.0	 0.0	 0.0	 0.0	 0.0; % COW
	16372	 1.052	 0.0	 0.0	 0.0	 1.0	 3.4	 1	 3.4	 0.0	 0.0	 0.0	 0.0	 0.0	 0.0	 0.0	 0.0	 0.0	 0.0	 0.0	 0.0; % PEL
	16373	 2.104	 0.0	 0.0	 0.0	 1.0	 6.8	 1	 6.8	 0.0	 0.0	 0.0	 0.0	 0.0	 0.0	 0.0	 0.0	 0.0	 0.0	 0.0	 0.0; % PEL
	16374	 2.368	 0.0	 0.0	 0.0	 1.0	 7.65	 1	 7.65	 0.0	 0.0	 0.0	 0.0	 0.0	 0.0	 0.0	 0.0	 0.0	 0.0	 0.0	 0.0; % PEL
	16375	 1.226	 0.0	 0.0	 0.0	 1.0	 4.25	 1	 3.96	 0.0	 0.0	 0.0	 0.0	 0.0	 0.0	 0.0	 0.0	 0.0	 0.0	 0.0	 0.0; % NG
	16376	 1.532	 0.0	 0.0	 0.0	 1.0	 5.1	 1	 4.95	 0.0	 0.0	 0.0	 0.0	 0.0	 0.0	 0.0	 0.0	 0.0	 0.0	 0.0	 0.0; % NG
	16377	 2.785	 0.0	 0.0	 0.0	 1.0	 9.2	 1	 9.0	 0.0	 0.0	 0.0	 0.0	 0.0	 0.0	 0.0	 0.0	 0.0	 0.0	 0.0	 0.0; % NG
	16379	 0.09	 0.0	 0.0	 0.0	 1.0	 0.323	 1	 0.29	 0.0	 0.0	 0.0	 0.0	 0.0	 0.0	 0.0	 0.0	 0.0	 0.0	 0.0	 0.0; % NG
	16571	 11.698	 0.0	 0.0	 0.0	 1.05	 40.0	 1	 37.8	 0.0	 0.0	 0.0	 0.0	 0.0	 0.0	 0.0	 0.0	 0.0	 0.0	 0.0	 0.0; % NG
	16670	 1.393	 -1.159	 0.0	 -3.07	 1.0	 4.5	 1	 4.5	 0.0	 0.0	 0.0	 0.0	 0.0	 0.0	 0.0	 0.0	 0.0	 0.0	 0.0	 0.0; % NG
	16671	 1.052	 0.0	 0.0	 0.0	 1.04	 3.4	 1	 3.4	 0.0	 0.0	 0.0	 0.0	 0.0	 0.0	 0.0	 0.0	 0.0	 0.0	 0.0	 0.0; % NG
	16672	 0.492	 -0.56	 -0.56	 -0.56	 1.04	 1.7	 1	 1.59	 0.0	 0.0	 0.0	 0.0	 0.0	 0.0	 0.0	 0.0	 0.0	 0.0	 0.0	 0.0; % PEL
	16674	 5.787	 0.0	 0.0	 0.0	 1.04	 18.7	 1	 18.7	 0.0	 0.0	 0.0	 0.0	 0.0	 0.0	 0.0	 0.0	 0.0	 0.0	 0.0	 0.0; % PEL
	16675	 2.476	 -2.65	 -2.65	 -2.65	 1.04	 8.0	 1	 8.0	 0.0	 0.0	 0.0	 0.0	 0.0	 0.0	 0.0	 0.0	 0.0	 0.0	 0.0	 0.0; % COW
	16873	 8.0	 7.0	 7.0	 -1.0	 1.05	 11.5	 1	 8.0	 2.0	 0.0	 0.0	 0.0	 0.0	 0.0	 0.0	 0.0	 0.0	 0.0	 0.0	 0.0; % NG
	17073	 22.5	 3.499	 23.0	 -25.0	 1.05	 35.5	 1	 22.5	 5.0	 0.0	 0.0	 0.0	 0.0	 0.0	 0.0	 0.0	 0.0	 0.0	 0.0	 0.0; % PEL
	17074	 22.5	 3.499	 23.0	 -25.0	 1.05	 35.5	 1	 22.5	 5.0	 0.0	 0.0	 0.0	 0.0	 0.0	 0.0	 0.0	 0.0	 0.0	 0.0	 0.0; % NG
	17075	 0.613	 -0.8	 -0.8	 -0.8	 1.0	 1.98	 1	 1.98	 0.0	 0.0	 0.0	 0.0	 0.0	 0.0	 0.0	 0.0	 0.0	 0.0	 0.0	 0.0; % PEL
	17077	 0.006	 0.0	 0.0	 0.0	 1.0	 1.2	 1	 0.02	 0.0	 0.0	 0.0	 0.0	 0.0	 0.0	 0.0	 0.0	 0.0	 0.0	 0.0	 0.0; % NG
	17671	 10.0	 3.499	 7.0	 -3.0	 1.05	 12.5	 1	 10.0	 3.0	 0.0	 0.0	 0.0	 0.0	 0.0	 0.0	 0.0	 0.0	 0.0	 0.0	 0.0; % NG
	17672	 10.0	 3.499	 7.0	 -3.0	 1.05	 12.5	 1	 10.0	 3.0	 0.0	 0.0	 0.0	 0.0	 0.0	 0.0	 0.0	 0.0	 0.0	 0.0	 0.0; % NG
	18471	 1.544	 0.0	 0.0	 0.0	 1.04	 5.2	 1	 4.99	 0.0	 0.0	 0.0	 0.0	 0.0	 0.0	 0.0	 0.0	 0.0	 0.0	 0.0	 0.0; % NG
	18472	 0.774	 0.0	 0.0	 -0.82	 1.0	 2.978	 1	 2.5	 0.0	 0.0	 0.0	 0.0	 0.0	 0.0	 0.0	 0.0	 0.0	 0.0	 0.0	 0.0; % PEL
	19081	 0.789	 0.0	 0.0	 0.0	 1.04	 2.55	 1	 2.55	 0.0	 0.0	 0.0	 0.0	 0.0	 0.0	 0.0	 0.0	 0.0	 0.0	 0.0	 0.0; % PEL
	19082	 0.526	 0.0	 0.0	 0.0	 1.05	 1.7	 1	 1.7	 0.0	 0.0	 0.0	 0.0	 0.0	 0.0	 0.0	 0.0	 0.0	 0.0	 0.0	 0.0; % PEL
	19083	 1.544	 0.0	 0.0	 0.0	 1.04	 6.9	 1	 4.99	 0.0	 0.0	 0.0	 0.0	 0.0	 0.0	 0.0	 0.0	 0.0	 0.0	 0.0	 0.0; % NG
	19084	 1.393	 -1.5	 -1.5	 -1.5	 1.04	 4.6	 1	 4.5	 0.0	 0.0	 0.0	 0.0	 0.0	 0.0	 0.0	 0.0	 0.0	 0.0	 0.0	 0.0; % NG
	19085	 6.499	 -7.0	 -7.0	 -7.0	 1.04	 23.824	 1	 21.0	 0.0	 0.0	 0.0	 0.0	 0.0	 0.0	 0.0	 0.0	 0.0	 0.0	 0.0	 0.0; % NG
	19101	 98.4	 0.0	 51.0	 -36.17	 1.075	 108.24	 0	 98.4	 34.0	 0.0	 0.0	 0.0	 0.0	 0.0	 0.0	 0.0	 0.0	 0.0	 0.0	 0.0; % NG
	19317	 0.0	 -6.0	 6.0	 -6.0	 1.05	 6.0	 1	 0.0	 0.0	 0.0	 0.0	 0.0	 0.0	 0.0	 0.0	 0.0	 0.0	 0.0	 0.0	 0.0; % SYNC
	19371	 7.35	 0.0	 0.0	 0.0	 1.05	 29.78	 1	 23.75	 0.0	 0.0	 0.0	 0.0	 0.0	 0.0	 0.0	 0.0	 0.0	 0.0	 0.0	 0.0; % COW
	19372	 3.42	 0.0	 0.0	 0.0	 1.05	 11.05	 1	 11.05	 0.0	 0.0	 0.0	 0.0	 0.0	 0.0	 0.0	 0.0	 0.0	 0.0	 0.0	 0.0; % NG
	19471	 133.0	 81.633	 94.0	 -50.0	 1.075	 153.0	 1	 133.5	 60.0	 0.0	 0.0	 0.0	 0.0	 0.0	 0.0	 0.0	 0.0	 0.0	 0.0	 0.0; % COW
	19472	 58.274	 0.0	 38.0	 -23.0	 1.075	 66.625	 0	 58.274	 19.7	 0.0	 0.0	 0.0	 0.0	 0.0	 0.0	 0.0	 0.0	 0.0	 0.0	 0.0; % NG
	19473	 58.274	 0.0	 40.0	 -23.0	 1.075	 66.625	 0	 58.274	 19.7	 0.0	 0.0	 0.0	 0.0	 0.0	 0.0	 0.0	 0.0	 0.0	 0.0	 0.0; % NG
	19601	 0.585	 0.0	 0.0	 0.0	 1.0	 6.5	 1	 5.85	 0.0	 0.0	 0.0	 0.0	 0.0	 0.0	 0.0	 0.0	 0.0	 0.0	 0.0	 0.0; % PEL
	19771	 13.153	 0.0	 0.0	 0.0	 1.05	 46.875	 1	 42.5	 0.0	 0.0	 0.0	 0.0	 0.0	 0.0	 0.0	 0.0	 0.0	 0.0	 0.0	 0.0; % NG
	19772	 2.631	 -0.422	 2.79	 -2.79	 1.05	 8.5	 1	 8.5	 0.0	 0.0	 0.0	 0.0	 0.0	 0.0	 0.0	 0.0	 0.0	 0.0	 0.0	 0.0; % NG
	19773	 9.284	 -1.487	 9.86	 -9.86	 1.05	 38.714	 1	 30.0	 0.0	 0.0	 0.0	 0.0	 0.0	 0.0	 0.0	 0.0	 0.0	 0.0	 0.0	 0.0; % NG
	19971	 6.19	 -6.7	 6.7	 -6.7	 1.05	 20.7	 1	 20.0	 0.0	 0.0	 0.0	 0.0	 0.0	 0.0	 0.0	 0.0	 0.0	 0.0	 0.0	 0.0; % NG
	19972	 0.712	 0.0	 0.0	 0.0	 1.05	 2.3	 1	 2.3	 0.0	 0.0	 0.0	 0.0	 0.0	 0.0	 0.0	 0.0	 0.0	 0.0	 0.0	 0.0; % PEL
	19973	 0.712	 0.0	 0.0	 0.0	 1.05	 2.3	 1	 2.3	 0.0	 0.0	 0.0	 0.0	 0.0	 0.0	 0.0	 0.0	 0.0	 0.0	 0.0	 0.0; % PEL
	19974	 4.983	 -4.0	 4.0	 -4.0	 1.05	 16.1	 1	 16.1	 0.0	 0.0	 0.0	 0.0	 0.0	 0.0	 0.0	 0.0	 0.0	 0.0	 0.0	 0.0; % PEL
	21071	 0.155	 0.0	 0.0	 0.0	 1.05	 0.85	 1	 0.5	 0.0	 0.0	 0.0	 0.0	 0.0	 0.0	 0.0	 0.0	 0.0	 0.0	 0.0	 0.0; % PEL
	21371	 8.82	 -9.5	 9.5	 -9.5	 1.05	 31.73	 1	 28.5	 0.0	 0.0	 0.0	 0.0	 0.0	 0.0	 0.0	 0.0	 0.0	 0.0	 0.0	 0.0; % PEL
	21372	 5.416	 -5.8	 5.8	 -5.8	 1.05	 23.38	 1	 17.5	 0.0	 0.0	 0.0	 0.0	 0.0	 0.0	 0.0	 0.0	 0.0	 0.0	 0.0	 0.0; % PEL
	21871	 0.526	 0.0	 0.0	 0.0	 1.01	 1.7	 1	 1.7	 0.0	 0.0	 0.0	 0.0	 0.0	 0.0	 0.0	 0.0	 0.0	 0.0	 0.0	 0.0; % PEL
	21872	 0.774	 -0.99	 -0.99	 -1.28	 1.01	 2.7	 1	 2.5	 0.0	 0.0	 0.0	 0.0	 0.0	 0.0	 0.0	 0.0	 0.0	 0.0	 0.0	 0.0; % PEL
	21873	 1.274	 0.0	 0.0	 0.0	 1.0	 1.6	 0	 1.274	 0.0	 0.0	 0.0	 0.0	 0.0	 0.0	 0.0	 0.0	 0.0	 0.0	 0.0	 0.0; % PEL
	22273	 1.393	 -1.074	 0.0	 -1.48	 1.0	 4.0	 1	 4.5	 0.0	 0.0	 0.0	 0.0	 0.0	 0.0	 0.0	 0.0	 0.0	 0.0	 0.0	 0.0; % NG
	22274	 1.838	 -2.4	 -2.4	 -2.4	 1.0	 5.94	 1	 5.94	 0.0	 0.0	 0.0	 0.0	 0.0	 0.0	 0.0	 0.0	 0.0	 0.0	 0.0	 0.0; % NG
	22275	 1.315	 0.0	 0.0	 0.0	 1.0	 4.25	 1	 4.25	 0.0	 0.0	 0.0	 0.0	 0.0	 0.0	 0.0	 0.0	 0.0	 0.0	 0.0	 0.0; % NG
	22276	 1.841	 0.0	 0.0	 0.0	 1.0	 6.68	 1	 5.95	 0.0	 0.0	 0.0	 0.0	 0.0	 0.0	 0.0	 0.0	 0.0	 0.0	 0.0	 0.0; % PEL
	22278	 1.43	 -1.0	 -1.0	 -1.0	 1.0	 4.62	 1	 4.62	 0.0	 0.0	 0.0	 0.0	 0.0	 0.0	 0.0	 0.0	 0.0	 0.0	 0.0	 0.0; % NG
	22292	 6.0	 0.0	 0.0	 0.0	 1.0	 6.0	 0	 6.0	 0.0	 0.0	 0.0	 0.0	 0.0	 0.0	 0.0	 0.0	 0.0	 0.0	 0.0	 0.0; % NG
	22371	 18.414	 0.0	 0.0	 0.0	 1.05	 59.5	 1	 59.5	 0.0	 0.0	 0.0	 0.0	 0.0	 0.0	 0.0	 0.0	 0.0	 0.0	 0.0	 0.0; % NG
	22471	 0.789	 0.0	 0.0	 0.0	 1.04	 2.55	 1	 2.55	 0.0	 0.0	 0.0	 0.0	 0.0	 0.0	 0.0	 0.0	 0.0	 0.0	 0.0	 0.0; % PEL
	22472	 1.315	 0.0	 0.0	 0.0	 1.04	 4.25	 1	 4.25	 0.0	 0.0	 0.0	 0.0	 0.0	 0.0	 0.0	 0.0	 0.0	 0.0	 0.0	 0.0; % NG
	22473	 1.315	 -1.5	 -1.5	 -1.5	 1.01	 4.25	 1	 4.25	 0.0	 0.0	 0.0	 0.0	 0.0	 0.0	 0.0	 0.0	 0.0	 0.0	 0.0	 0.0; % PEL
	22671	 52.1	 0.0	 32.6	 -22.7	 1.05	 62.0	 0	 52.1	 1.2	 0.0	 0.0	 0.0	 0.0	 0.0	 0.0	 0.0	 0.0	 0.0	 0.0	 0.0; % NG
	22672	 52.1	 0.0	 32.6	 -22.7	 1.05	 62.0	 0	 52.1	 1.2	 0.0	 0.0	 0.0	 0.0	 0.0	 0.0	 0.0	 0.0	 0.0	 0.0	 0.0; % PEL
	22871	 0.743	 -0.84	 -0.84	 -1.09	 1.01	 2.4	 1	 2.4	 0.0	 0.0	 0.0	 0.0	 0.0	 0.0	 0.0	 0.0	 0.0	 0.0	 0.0	 0.0; % PEL
	25604	 1.6	 0.0	 0.0	 0.0	 1.0	 1.7	 0	 1.6	 0.0	 0.0	 0.0	 0.0	 0.0	 0.0	 0.0	 0.0	 0.0	 0.0	 0.0	 0.0; % PEL
	26771	 8.047	 -10.0	 10.0	 -10.0	 1.05	 26.0	 1	 26.0	 0.0	 0.0	 0.0	 0.0	 0.0	 0.0	 0.0	 0.0	 0.0	 0.0	 0.0	 0.0; % PEL
	26772	 0.6	 0.0	 0.0	 0.0	 1.075	 6.0	 1	 6.0	 6.0	 0.0	 0.0	 0.0	 0.0	 0.0	 0.0	 0.0	 0.0	 0.0	 0.0	 0.0; % NG
	26773	 6.809	 -10.0	 10.0	 -10.0	 1.05	 22.0	 1	 22.0	 0.0	 0.0	 0.0	 0.0	 0.0	 0.0	 0.0	 0.0	 0.0	 0.0	 0.0	 0.0; % NG
	26774	 0.6	 0.0	 0.0	 0.0	 1.075	 6.0	 1	 6.0	 6.0	 0.0	 0.0	 0.0	 0.0	 0.0	 0.0	 0.0	 0.0	 0.0	 0.0	 0.0; % NG
	27071	 0.248	 0.0	 0.0	 0.0	 1.0	 0.8	 1	 0.8	 0.0	 0.0	 0.0	 0.0	 0.0	 0.0	 0.0	 0.0	 0.0	 0.0	 0.0	 0.0; % NG
	27204	 4.0	 -1.0	 1.0	 -1.0	 1.04	 5.0	 1	 4.0	 0.0	 0.0	 0.0	 0.0	 0.0	 0.0	 0.0	 0.0	 0.0	 0.0	 0.0	 0.0; % NG
	27361	 0.0	 -1.855	 12.3	 -12.3	 1.05	 12.3	 1	 0.0	 0.0	 0.0	 0.0	 0.0	 0.0	 0.0	 0.0	 0.0	 0.0	 0.0	 0.0	 0.0; % SYNC
	27371	 3.961	 0.0	 0.0	 0.0	 1.05	 14.45	 1	 12.8	 0.0	 0.0	 0.0	 0.0	 0.0	 0.0	 0.0	 0.0	 0.0	 0.0	 0.0	 0.0; % NG
	27372	 5.261	 0.0	 0.0	 0.0	 1.05	 18.75	 1	 17.0	 0.0	 0.0	 0.0	 0.0	 0.0	 0.0	 0.0	 0.0	 0.0	 0.0	 0.0	 0.0; % PEL
	27374	 1.857	 -1.97	 -1.97	 -1.97	 1.05	 6.25	 1	 6.0	 0.0	 0.0	 0.0	 0.0	 0.0	 0.0	 0.0	 0.0	 0.0	 0.0	 0.0	 0.0; % NG
	27471	 57.0	 0.0	 42.0	 -3.0	 1.075	 75.0	 0	 57.0	 25.0	 0.0	 0.0	 0.0	 0.0	 0.0	 0.0	 0.0	 0.0	 0.0	 0.0	 0.0; % NG
	27472	 51.8	 0.0	 40.0	 -3.0	 1.075	 75.0	 0	 51.8	 25.0	 0.0	 0.0	 0.0	 0.0	 0.0	 0.0	 0.0	 0.0	 0.0	 0.0	 0.0; % NG
	27473	 121.0	 0.0	 82.0	 -48.0	 1.075	 150.0	 0	 121.0	 30.0	 0.0	 0.0	 0.0	 0.0	 0.0	 0.0	 0.0	 0.0	 0.0	 0.0	 0.0; % COW
	27474	 235.0	 119.699	 285.0	 -182.0	 1.075	 570.6	 1	 469.5	 235.0	 0.0	 0.0	 0.0	 0.0	 0.0	 0.0	 0.0	 0.0	 0.0	 0.0	 0.0; % COW
	27771	 12.758	 -1.96	 13.0	 -13.61	 1.05	 41.4	 1	 41.225	 0.0	 0.0	 0.0	 0.0	 0.0	 0.0	 0.0	 0.0	 0.0	 0.0	 0.0	 0.0; % PEL
	27772	 3.095	 -2.0	 -2.0	 -2.0	 1.0	 11.912	 1	 10.0	 0.0	 0.0	 0.0	 0.0	 0.0	 0.0	 0.0	 0.0	 0.0	 0.0	 0.0	 0.0; % NG
	27773	 1.547	 -1.0	 -1.0	 -1.0	 1.0	 4.6	 1	 5.0	 0.0	 0.0	 0.0	 0.0	 0.0	 0.0	 0.0	 0.0	 0.0	 0.0	 0.0	 0.0; % NG
	27774	 5.571	 -3.0	 -3.0	 -3.0	 1.05	 18.4	 1	 18.0	 0.0	 0.0	 0.0	 0.0	 0.0	 0.0	 0.0	 0.0	 0.0	 0.0	 0.0	 0.0; % PEL
	27871	 1.021	 -0.7	 -0.7	 -0.7	 1.04	 3.3	 1	 3.3	 0.0	 0.0	 0.0	 0.0	 0.0	 0.0	 0.0	 0.0	 0.0	 0.0	 0.0	 0.0; % PEL
	28071	 4.642	 -6.0	 -6.0	 -6.0	 1.05	 15.0	 1	 15.0	 0.0	 0.0	 0.0	 0.0	 0.0	 0.0	 0.0	 0.0	 0.0	 0.0	 0.0	 0.0; % COW
	28271	 0.928	 -1.2	 -1.2	 -1.2	 1.04	 3.34	 1	 3.0	 0.0	 0.0	 0.0	 0.0	 0.0	 0.0	 0.0	 0.0	 0.0	 0.0	 0.0	 0.0; % PEL
	28571	 300.0	 -36.609	 282.1	 -190.0	 1.04	 535.5	 1	 450.5	 110.1	 0.0	 0.0	 0.0	 0.0	 0.0	 0.0	 0.0	 0.0	 0.0	 0.0	 0.0; % NG
	28871	 1.857	 -1.97	 1.97	 -1.97	 1.0	 6.68	 1	 6.0	 0.0	 0.0	 0.0	 0.0	 0.0	 0.0	 0.0	 0.0	 0.0	 0.0	 0.0	 0.0; % NG
	28872	 3.25	 0.0	 0.0	 0.0	 1.0	 13.8	 1	 10.5	 0.0	 0.0	 0.0	 0.0	 0.0	 0.0	 0.0	 0.0	 0.0	 0.0	 0.0	 0.0; % NG
	28873	 5.106	 -5.42	 5.42	 -5.42	 1.0	 18.4	 1	 16.5	 0.0	 0.0	 0.0	 0.0	 0.0	 0.0	 0.0	 0.0	 0.0	 0.0	 0.0	 0.0; % PEL
	28874	 8.047	 0.0	 0.0	 0.0	 1.0	 27.6	 1	 26.0	 0.0	 0.0	 0.0	 0.0	 0.0	 0.0	 0.0	 0.0	 0.0	 0.0	 0.0	 0.0; % COW
	29671	 110.0	 22.903	 107.0	 -53.0	 1.075	 150.0	 1	 123.0	 40.0	 0.0	 0.0	 0.0	 0.0	 0.0	 0.0	 0.0	 0.0	 0.0	 0.0	 0.0; % COW
	29672	 220.0	 44.025	 181.0	 -87.0	 1.075	 288.0	 1	 236.2	 138.0	 0.0	 0.0	 0.0	 0.0	 0.0	 0.0	 0.0	 0.0	 0.0	 0.0	 0.0; % NG
	29673	 300.0	 103.232	 255.0	 -170.0	 1.075	 473.0	 1	 400.0	 194.0	 0.0	 0.0	 0.0	 0.0	 0.0	 0.0	 0.0	 0.0	 0.0	 0.0	 0.0; % COW
	30671	 15.0	 13.0	 13.0	 -4.0	 1.05	 21.4	 1	 15.0	 4.0	 0.0	 0.0	 0.0	 0.0	 0.0	 0.0	 0.0	 0.0	 0.0	 0.0	 0.0; % NG
	30671	 4.0	 3.0	 3.0	 -1.0	 1.05	 5.7	 1	 4.0	 1.0	 0.0	 0.0	 0.0	 0.0	 0.0	 0.0	 0.0	 0.0	 0.0	 0.0	 0.0; % PEL
	31071	 0.789	 0.0	 0.0	 0.0	 1.01	 2.55	 1	 2.55	 0.0	 0.0	 0.0	 0.0	 0.0	 0.0	 0.0	 0.0	 0.0	 0.0	 0.0	 0.0; % PEL
	31074	 0.789	 0.0	 0.0	 0.0	 1.04	 2.55	 1	 2.55	 0.0	 0.0	 0.0	 0.0	 0.0	 0.0	 0.0	 0.0	 0.0	 0.0	 0.0	 0.0; % PEL
	31271	 300.0	 295.0	 295.0	 -100.0	 1.075	 500.0	 1	 409.9	 163.0	 0.0	 0.0	 0.0	 0.0	 0.0	 0.0	 0.0	 0.0	 0.0	 0.0	 0.0; % NG
	32404	 4.26	 0.0	 1.0	 -1.0	 1.04	 4.8	 0	 4.26	 0.0	 0.0	 0.0	 0.0	 0.0	 0.0	 0.0	 0.0	 0.0	 0.0	 0.0	 0.0; % NG
	32570	 13.726	 -4.6	 4.6	 -4.6	 1.0	 46.875	 1	 44.35	 0.0	 0.0	 0.0	 0.0	 0.0	 0.0	 0.0	 0.0	 0.0	 0.0	 0.0	 0.0; % NG
	32576	 3.466	 -4.172	 0.0	 -5.03	 1.0	 11.2	 1	 11.2	 0.0	 0.0	 0.0	 0.0	 0.0	 0.0	 0.0	 0.0	 0.0	 0.0	 0.0	 0.0; % NG
	32577	 1.114	 -1.315	 0.0	 -5.03	 1.0	 3.6	 1	 3.6	 0.0	 0.0	 0.0	 0.0	 0.0	 0.0	 0.0	 0.0	 0.0	 0.0	 0.0	 0.0; % NG
	32578	 1.25	 0.0	 0.0	 0.0	 1.0	 1.25	 0	 1.25	 0.0	 0.0	 0.0	 0.0	 0.0	 0.0	 0.0	 0.0	 0.0	 0.0	 0.0	 0.0; % PEL
	32604	 7.5	 0.0	 1.0	 -1.0	 1.05	 8.5	 0	 7.5	 2.0	 0.0	 0.0	 0.0	 0.0	 0.0	 0.0	 0.0	 0.0	 0.0	 0.0	 0.0; % NG
	32604	 0.18	 0.0	 0.0	 0.0	 1.05	 0.2	 0	 0.18	 0.0	 0.0	 0.0	 0.0	 0.0	 0.0	 0.0	 0.0	 0.0	 0.0	 0.0	 0.0; % PEL
	33071	 1.393	 -1.389	 0.0	 -1.48	 1.0	 4.0	 1	 4.5	 0.0	 0.0	 0.0	 0.0	 0.0	 0.0	 0.0	 0.0	 0.0	 0.0	 0.0	 0.0; % NG
	33072	 2.894	 0.0	 0.0	 0.0	 1.0	 9.35	 1	 9.35	 0.0	 0.0	 0.0	 0.0	 0.0	 0.0	 0.0	 0.0	 0.0	 0.0	 0.0	 0.0; % NG
	33971	 26.925	 -2.05	 28.6	 -28.6	 1.05	 104.23	 1	 87.0	 0.0	 0.0	 0.0	 0.0	 0.0	 0.0	 0.0	 0.0	 0.0	 0.0	 0.0	 0.0; % NG
	35071	 1.424	 -1.64	 -1.64	 -2.13	 1.01	 4.6	 1	 4.6	 0.0	 0.0	 0.0	 0.0	 0.0	 0.0	 0.0	 0.0	 0.0	 0.0	 0.0	 0.0; % NG
	35074	 103.0	 -6.99	 60.0	 -39.0	 1.05	 121.1	 1	 103.3	 70.0	 0.0	 0.0	 0.0	 0.0	 0.0	 0.0	 0.0	 0.0	 0.0	 0.0	 0.0; % NG
	35871	 0.789	 0.0	 0.0	 0.0	 1.04	 2.55	 1	 2.55	 0.0	 0.0	 0.0	 0.0	 0.0	 0.0	 0.0	 0.0	 0.0	 0.0	 0.0	 0.0; % PEL
	35872	 0.758	 0.0	 0.0	 0.0	 1.04	 2.55	 1	 2.45	 0.0	 0.0	 0.0	 0.0	 0.0	 0.0	 0.0	 0.0	 0.0	 0.0	 0.0	 0.0; % PEL
	35873	 0.99	 0.0	 0.0	 0.0	 1.04	 3.2	 1	 3.2	 0.0	 0.0	 0.0	 0.0	 0.0	 0.0	 0.0	 0.0	 0.0	 0.0	 0.0	 0.0; % PEL
	35875	 4.642	 -6.0	 -6.0	 -6.0	 1.04	 17.7	 1	 15.0	 0.0	 0.0	 0.0	 0.0	 0.0	 0.0	 0.0	 0.0	 0.0	 0.0	 0.0	 0.0; % PEL
	35876	 3.677	 -4.8	 -4.8	 -4.8	 1.04	 11.88	 1	 11.88	 0.0	 0.0	 0.0	 0.0	 0.0	 0.0	 0.0	 0.0	 0.0	 0.0	 0.0	 0.0; % NG
	35877	 1.544	 0.0	 0.0	 0.0	 1.04	 5.4	 1	 4.99	 0.0	 0.0	 0.0	 0.0	 0.0	 0.0	 0.0	 0.0	 0.0	 0.0	 0.0	 0.0; % NG
	36271	 11.141	 -4.319	 12.0	 -12.0	 1.05	 36.0	 1	 36.0	 0.0	 0.0	 0.0	 0.0	 0.0	 0.0	 0.0	 0.0	 0.0	 0.0	 0.0	 0.0; % NG
	36272	 1.9	 -2.699	 7.5	 -75.0	 1.05	 20.0	 1	 19.0	 0.0	 0.0	 0.0	 0.0	 0.0	 0.0	 0.0	 0.0	 0.0	 0.0	 0.0	 0.0; % PEL
	36471	 4.472	 0.0	 0.0	 0.0	 1.05	 15.0	 1	 14.45	 0.0	 0.0	 0.0	 0.0	 0.0	 0.0	 0.0	 0.0	 0.0	 0.0	 0.0	 0.0; % PEL
	36472	 1.238	 -1.31	 -1.31	 -1.7	 1.04	 4.6	 1	 4.0	 0.0	 0.0	 0.0	 0.0	 0.0	 0.0	 0.0	 0.0	 0.0	 0.0	 0.0	 0.0; % NG
	36473	 1.424	 0.0	 0.0	 0.0	 1.0	 4.6	 1	 4.6	 0.0	 0.0	 0.0	 0.0	 0.0	 0.0	 0.0	 0.0	 0.0	 0.0	 0.0	 0.0; % NG
	36474	 1.114	 -1.18	 -1.18	 -1.53	 1.04	 4.0	 1	 3.6	 0.0	 0.0	 0.0	 0.0	 0.0	 0.0	 0.0	 0.0	 0.0	 0.0	 0.0	 0.0; % NG
	36475	 1.238	 -1.2	 -1.2	 -1.2	 1.04	 4.6	 1	 4.0	 0.0	 0.0	 0.0	 0.0	 0.0	 0.0	 0.0	 0.0	 0.0	 0.0	 0.0	 0.0; % NG
	36476	 4.58	 2.979	 4.0	 -4.0	 1.04	 17.868	 1	 14.8	 0.0	 0.0	 0.0	 0.0	 0.0	 0.0	 0.0	 0.0	 0.0	 0.0	 0.0	 0.0; % NG
	38071	 0.495	 -0.56	 -0.56	 -0.56	 1.01	 1.6	 1	 1.6	 0.0	 0.0	 0.0	 0.0	 0.0	 0.0	 0.0	 0.0	 0.0	 0.0	 0.0	 0.0; % PEL
	38244	 1.0	 0.0	 0.0	 0.0	 1.0	 6.5	 0	 1.0	 0.0	 0.0	 0.0	 0.0	 0.0	 0.0	 0.0	 0.0	 0.0	 0.0	 0.0	 0.0; % PEL
	38271	 3.25	 0.0	 0.0	 0.0	 1.04	 11.69	 1	 10.5	 0.0	 0.0	 0.0	 0.0	 0.0	 0.0	 0.0	 0.0	 0.0	 0.0	 0.0	 0.0; % NG
	38272	 1.393	 0.0	 0.0	 0.0	 1.04	 5.01	 1	 4.5	 0.0	 0.0	 0.0	 0.0	 0.0	 0.0	 0.0	 0.0	 0.0	 0.0	 0.0	 0.0; % NG
	38273	 2.321	 0.0	 0.0	 0.0	 1.05	 8.35	 1	 7.5	 0.0	 0.0	 0.0	 0.0	 0.0	 0.0	 0.0	 0.0	 0.0	 0.0	 0.0	 0.0; % NG
	38870	 7.83	 0.0	 0.0	 0.0	 1.04	 25.3	 1	 25.3	 0.0	 0.0	 0.0	 0.0	 0.0	 0.0	 0.0	 0.0	 0.0	 0.0	 0.0	 0.0; % NG
	38871	 2.708	 -1.181	 0.0	 -2.88	 1.0	 10.0	 1	 8.75	 0.0	 0.0	 0.0	 0.0	 0.0	 0.0	 0.0	 0.0	 0.0	 0.0	 0.0	 0.0; % PEL
	39471	 230.0	 -5.613	 176.0	 -112.0	 1.05	 359.0	 1	 302.0	 99.0	 0.0	 0.0	 0.0	 0.0	 0.0	 0.0	 0.0	 0.0	 0.0	 0.0	 0.0; % COW
	39472	 230.0	 50.325	 176.0	 -112.0	 1.05	 359.0	 1	 303.0	 99.0	 0.0	 0.0	 0.0	 0.0	 0.0	 0.0	 0.0	 0.0	 0.0	 0.0	 0.0; % NG
	39473	 230.0	 -5.613	 176.0	 -112.0	 1.05	 359.0	 1	 302.0	 99.0	 0.0	 0.0	 0.0	 0.0	 0.0	 0.0	 0.0	 0.0	 0.0	 0.0	 0.0; % NG
	39675	 90.0	 0.0	 60.0	 -19.0	 1.05	 100.9	 0	 90.0	 60.0	 0.0	 0.0	 0.0	 0.0	 0.0	 0.0	 0.0	 0.0	 0.0	 0.0	 0.0; % NG
	40471	 1.857	 0.0	 0.0	 0.0	 1.05	 6.9	 1	 6.0	 0.0	 0.0	 0.0	 0.0	 0.0	 0.0	 0.0	 0.0	 0.0	 0.0	 0.0	 0.0; % NG
	40771	 16.372	 0.0	 0.0	 0.0	 1.05	 52.9	 1	 52.9	 0.0	 0.0	 0.0	 0.0	 0.0	 0.0	 0.0	 0.0	 0.0	 0.0	 0.0	 0.0; % NG
	40772	 5.589	 0.0	 0.0	 0.0	 1.05	 19.5	 1	 18.06	 0.0	 0.0	 0.0	 0.0	 0.0	 0.0	 0.0	 0.0	 0.0	 0.0	 0.0	 0.0; % NG
	40773	 4.333	 0.0	 0.0	 0.0	 1.05	 16.1	 1	 14.0	 0.0	 0.0	 0.0	 0.0	 0.0	 0.0	 0.0	 0.0	 0.0	 0.0	 0.0	 0.0; % NG
	42271	 1.547	 -1.64	 -1.64	 -2.13	 1.01	 6.0	 1	 4.999	 0.0	 0.0	 0.0	 0.0	 0.0	 0.0	 0.0	 0.0	 0.0	 0.0	 0.0	 0.0; % PEL
	42404	 15.0	 0.0	 5.0	 0.0	 1.0	 20.0	 0	 15.0	 6.0	 0.0	 0.0	 0.0	 0.0	 0.0	 0.0	 0.0	 0.0	 0.0	 0.0	 0.0; % PEL
	42404	 15.0	 0.0	 5.0	 0.0	 1.0	 20.0	 0	 15.0	 6.0	 0.0	 0.0	 0.0	 0.0	 0.0	 0.0	 0.0	 0.0	 0.0	 0.0	 0.0; % NG
	42404	 15.0	 0.0	 5.0	 0.0	 1.0	 20.0	 0	 15.0	 6.0	 0.0	 0.0	 0.0	 0.0	 0.0	 0.0	 0.0	 0.0	 0.0	 0.0	 0.0; % NG
	42474	 118.0	 0.0	 55.0	 -20.0	 1.075	 132.1	 0	 118.0	 40.0	 0.0	 0.0	 0.0	 0.0	 0.0	 0.0	 0.0	 0.0	 0.0	 0.0	 0.0; % NG
	42475	 109.5	 0.0	 55.0	 -20.0	 1.075	 132.1	 0	 109.5	 20.0	 0.0	 0.0	 0.0	 0.0	 0.0	 0.0	 0.0	 0.0	 0.0	 0.0	 0.0; % NG
	42501	 102.0	 0.0	 90.0	 -47.0	 1.075	 140.0	 0	 102.0	 35.0	 0.0	 0.0	 0.0	 0.0	 0.0	 0.0	 0.0	 0.0	 0.0	 0.0	 0.0; % COW
	42672	 0.755	 -0.871	 -0.83	 -1.07	 1.01	 2.55	 1	 2.44	 0.0	 0.0	 0.0	 0.0	 0.0	 0.0	 0.0	 0.0	 0.0	 0.0	 0.0	 0.0; % PEL
	42673	 1.207	 -1.3	 -1.3	 -1.3	 1.01	 4.6	 1	 3.9	 0.0	 0.0	 0.0	 0.0	 0.0	 0.0	 0.0	 0.0	 0.0	 0.0	 0.0	 0.0; % NG
	42674	 0.789	 0.0	 0.0	 0.0	 1.01	 2.55	 1	 2.55	 0.0	 0.0	 0.0	 0.0	 0.0	 0.0	 0.0	 0.0	 0.0	 0.0	 0.0	 0.0; % NG
	43671	 2.135	 0.0	 0.0	 0.0	 1.0	 6.9	 1	 6.9	 0.0	 0.0	 0.0	 0.0	 0.0	 0.0	 0.0	 0.0	 0.0	 0.0	 0.0	 0.0; % PEL
	43672	 0.712	 0.0	 0.0	 0.0	 1.0	 2.3	 1	 2.3	 0.0	 0.0	 0.0	 0.0	 0.0	 0.0	 0.0	 0.0	 0.0	 0.0	 0.0	 0.0; % PEL
	43774	 10.569	 -10.0	 10.0	 -10.0	 1.05	 36.8	 1	 34.15	 0.0	 0.0	 0.0	 0.0	 0.0	 0.0	 0.0	 0.0	 0.0	 0.0	 0.0	 0.0; % NG
	44471	 15.0	 -3.527	 9.0	 -10.0	 1.05	 18.8	 1	 15.0	 5.0	 0.0	 0.0	 0.0	 0.0	 0.0	 0.0	 0.0	 0.0	 0.0	 0.0	 0.0; % NG
	44471	 15.0	 -3.527	 9.0	 -10.0	 1.05	 18.8	 1	 15.0	 5.0	 0.0	 0.0	 0.0	 0.0	 0.0	 0.0	 0.0	 0.0	 0.0	 0.0	 0.0; % NG
	44471	 4.0	 -0.94	 3.0	 -1.0	 1.05	 5.0	 1	 4.0	 1.0	 0.0	 0.0	 0.0	 0.0	 0.0	 0.0	 0.0	 0.0	 0.0	 0.0	 0.0; % NG
	46801	 6.5	 0.0	 0.0	 0.0	 1.0	 6.75	 0	 6.5	 2.0	 0.0	 0.0	 0.0	 0.0	 0.0	 0.0	 0.0	 0.0	 0.0	 0.0	 0.0; % COW
...
];

%% generator cost data
%	2	startup	shutdown	n	c(n-1)	...	c0
mpc.gencost = [
	2	 0.0	 0.0	 3	   0.000000	   0.537327	   0.000000; % COW
	2	 0.0	 0.0	 3	   0.000000	   1.121168	   0.000000; % NG
	2	 0.0	 0.0	 3	   0.000000	   0.950221	   0.000000; % COW
	2	 0.0	 0.0	 3	   0.000000	   1.001259	   0.000000; % NG
	2	 0.0	 0.0	 3	   0.000000	   1.230221	   0.000000; % NG
	2	 0.0	 0.0	 3	   0.000000	   7.116223	   0.000000; % PEL
	2	 0.0	 0.0	 3	   0.000000	   1.084067	   0.000000; % NG
	2	 0.0	 0.0	 3	   0.000000	   1.124269	   0.000000; % NG
	2	 0.0	 0.0	 3	   0.000000	   0.762035	   0.000000; % NG
	2	 0.0	 0.0	 3	   0.000000	   1.329139	   0.000000; % NG
	2	 0.0	 0.0	 3	   0.000000	   1.066067	   0.000000; % NG
	2	 0.0	 0.0	 3	   0.000000	   1.349195	   0.000000; % NG
	2	 0.0	 0.0	 3	   0.000000	   0.848855	   0.000000; % NG
	2	 0.0	 0.0	 3	   0.000000	   1.191138	   0.000000; % NG
	2	 0.0	 0.0	 3	   0.000000	   0.864138	   0.000000; % NG
	2	 0.0	 0.0	 3	   0.000000	   6.603358	   0.000000; % PEL
	2	 0.0	 0.0	 3	   0.000000	   7.605204	   0.000000; % PEL
	2	 0.0	 0.0	 3	   0.000000	   7.154894	   0.000000; % PEL
	2	 0.0	 0.0	 3	   0.000000	   0.972999	   0.000000; % COW
	2	 0.0	 0.0	 3	   0.000000	   7.093512	   0.000000; % PEL
	2	 0.0	 0.0	 3	   0.000000	   1.196938	   0.000000; % NG
	2	 0.0	 0.0	 3	   0.000000	   1.433331	   0.000000; % NG
	2	 0.0	 0.0	 3	   0.000000	   1.017277	   0.000000; % NG
	2	 0.0	 0.0	 3	   0.000000	   1.373174	   0.000000; % NG
	2	 0.0	 0.0	 3	   0.000000	   6.434306	   0.000000; % PEL
	2	 0.0	 0.0	 3	   0.000000	   0.660731	   0.000000; % COW
	2	 0.0	 0.0	 3	   0.000000	   7.655592	   0.000000; % PEL
	2	 0.0	 0.0	 3	   0.000000	   6.723925	   0.000000; % PEL
	2	 0.0	 0.0	 3	   0.000000	   1.081920	   0.000000; % NG
	2	 0.0	 0.0	 3	   0.000000	   1.161520	   0.000000; % NG
	2	 0.0	 0.0	 3	   0.000000	   7.111085	   0.000000; % PEL
	2	 0.0	 0.0	 3	   0.000000	   0.413376	   0.000000; % COW
	2	 0.0	 0.0	 3	   0.000000	   0.758704	   0.000000; % NG
	2	 0.0	 0.0	 3	   0.000000	   6.459859	   0.000000; % PEL
	2	 0.0	 0.0	 3	   0.000000	   6.943110	   0.000000; % PEL
	2	 0.0	 0.0	 3	   0.000000	   0.994324	   0.000000; % COW
	2	 0.0	 0.0	 3	   0.000000	   0.671335	   0.000000; % COW
	2	 0.0	 0.0	 3	   0.000000	   0.899596	   0.000000; % NG
	2	 0.0	 0.0	 3	   0.000000	   1.159442	   0.000000; % NG
	2	 0.0	 0.0	 3	   0.000000	   7.109727	   0.000000; % PEL
	2	 0.0	 0.0	 3	   0.000000	   7.412694	   0.000000; % PEL
	2	 0.0	 0.0	 3	   0.000000	   6.915848	   0.000000; % PEL
	2	 0.0	 0.0	 3	   0.000000	   6.871121	   0.000000; % PEL
	2	 0.0	 0.0	 3	   0.000000	   6.460558	   0.000000; % PEL
	2	 0.0	 0.0	 3	   0.000000	   0.783189	   0.000000; % NG
	2	 0.0	 0.0	 3	   0.000000	   0.795650	   0.000000; % COW
	2	 0.0	 0.0	 3	   0.000000	   6.963627	   0.000000; % PEL
	2	 0.0	 0.0	 3	   0.000000	   6.871234	   0.000000; % PEL
	2	 0.0	 0.0	 3	   0.000000	   7.767267	   0.000000; % PEL
	2	 0.0	 0.0	 3	   0.000000	   0.843894	   0.000000; % NG
	2	 0.0	 0.0	 3	   0.000000	   0.787371	   0.000000; % NG
	2	 0.0	 0.0	 3	   0.000000	   0.892153	   0.000000; % NG
	2	 0.0	 0.0	 3	   0.000000	   1.160876	   0.000000; % NG
	2	 0.0	 0.0	 3	   0.000000	   0.932968	   0.000000; % NG
	2	 0.0	 0.0	 3	   0.000000	   0.791029	   0.000000; % NG
	2	 0.0	 0.0	 3	   0.000000	   1.080471	   0.000000; % NG
	2	 0.0	 0.0	 3	   0.000000	   6.791029	   0.000000; % PEL
	2	 0.0	 0.0	 3	   0.000000	   7.550679	   0.000000; % PEL
	2	 0.0	 0.0	 3	   0.000000	   0.920327	   0.000000; % COW
	2	 0.0	 0.0	 3	   0.000000	   0.952499	   0.000000; % NG
	2	 0.0	 0.0	 3	   0.000000	   7.065405	   0.000000; % PEL
	2	 0.0	 0.0	 3	   0.000000	   0.740013	   0.000000; % NG
	2	 0.0	 0.0	 3	   0.000000	   6.817153	   0.000000; % PEL
	2	 0.0	 0.0	 3	   0.000000	   1.456089	   0.000000; % NG
	2	 0.0	 0.0	 3	   0.000000	   0.884468	   0.000000; % NG
	2	 0.0	 0.0	 3	   0.000000	   1.034166	   0.000000; % NG
	2	 0.0	 0.0	 3	   0.000000	   1.048210	   0.000000; % NG
	2	 0.0	 0.0	 3	   0.000000	   7.254660	   0.000000; % PEL
	2	 0.0	 0.0	 3	   0.000000	   7.239807	   0.000000; % PEL
	2	 0.0	 0.0	 3	   0.000000	   7.251675	   0.000000; % PEL
	2	 0.0	 0.0	 3	   0.000000	   1.120700	   0.000000; % NG
	2	 0.0	 0.0	 3	   0.000000	   0.655693	   0.000000; % NG
	2	 0.0	 0.0	 3	   0.000000	   0.999111	   0.000000; % NG
	2	 0.0	 0.0	 3	   0.000000	   1.029084	   0.000000; % NG
	2	 0.0	 0.0	 3	   0.000000	   0.000000	   0.000000; % SYNC
	2	 0.0	 0.0	 3	   0.000000	   1.373216	   0.000000; % COW
	2	 0.0	 0.0	 3	   0.000000	   1.097361	   0.000000; % NG
	2	 0.0	 0.0	 3	   0.000000	   0.815574	   0.000000; % COW
	2	 0.0	 0.0	 3	   0.000000	   1.077884	   0.000000; % NG
	2	 0.0	 0.0	 3	   0.000000	   0.955403	   0.000000; % NG
	2	 0.0	 0.0	 3	   0.000000	   5.868364	   0.000000; % PEL
	2	 0.0	 0.0	 3	   0.000000	   1.004548	   0.000000; % NG
	2	 0.0	 0.0	 3	   0.000000	   1.019733	   0.000000; % NG
	2	 0.0	 0.0	 3	   0.000000	   0.993317	   0.000000; % NG
	2	 0.0	 0.0	 3	   0.000000	   1.277610	   0.000000; % NG
	2	 0.0	 0.0	 3	   0.000000	   6.445915	   0.000000; % PEL
	2	 0.0	 0.0	 3	   0.000000	   7.157770	   0.000000; % PEL
	2	 0.0	 0.0	 3	   0.000000	   6.386578	   0.000000; % PEL
	2	 0.0	 0.0	 3	   0.000000	   7.117970	   0.000000; % PEL
	2	 0.0	 0.0	 3	   0.000000	   7.215496	   0.000000; % PEL
	2	 0.0	 0.0	 3	   0.000000	   6.872684	   0.000000; % PEL
	2	 0.0	 0.0	 3	   0.000000	   7.169138	   0.000000; % PEL
	2	 0.0	 0.0	 3	   0.000000	   6.618270	   0.000000; % PEL
	2	 0.0	 0.0	 3	   0.000000	   6.362177	   0.000000; % PEL
	2	 0.0	 0.0	 3	   0.000000	   1.130169	   0.000000; % NG
	2	 0.0	 0.0	 3	   0.000000	   0.922015	   0.000000; % NG
	2	 0.0	 0.0	 3	   0.000000	   0.684060	   0.000000; % NG
	2	 0.0	 0.0	 3	   0.000000	   6.871546	   0.000000; % PEL
	2	 0.0	 0.0	 3	   0.000000	   0.888060	   0.000000; % NG
	2	 0.0	 0.0	 3	   0.000000	   0.691225	   0.000000; % NG
	2	 0.0	 0.0	 3	   0.000000	   1.153223	   0.000000; % NG
	2	 0.0	 0.0	 3	   0.000000	   6.946241	   0.000000; % PEL
	2	 0.0	 0.0	 3	   0.000000	   1.154892	   0.000000; % NG
	2	 0.0	 0.0	 3	   0.000000	   6.445219	   0.000000; % PEL
	2	 0.0	 0.0	 3	   0.000000	   0.851933	   0.000000; % NG
	2	 0.0	 0.0	 3	   0.000000	   7.405452	   0.000000; % PEL
	2	 0.0	 0.0	 3	   0.000000	   7.020898	   0.000000; % PEL
	2	 0.0	 0.0	 3	   0.000000	   7.369936	   0.000000; % PEL
	2	 0.0	 0.0	 3	   0.000000	   7.366826	   0.000000; % PEL
	2	 0.0	 0.0	 3	   0.000000	   1.290457	   0.000000; % NG
	2	 0.0	 0.0	 3	   0.000000	   0.979178	   0.000000; % NG
	2	 0.0	 0.0	 3	   0.000000	   0.951592	   0.000000; % NG
	2	 0.0	 0.0	 3	   0.000000	   1.353832	   0.000000; % NG
	2	 0.0	 0.0	 3	   0.000000	   1.028390	   0.000000; % NG
	2	 0.0	 0.0	 3	   0.000000	   0.000000	   0.000000; % SYNC
	2	 0.0	 0.0	 3	   0.000000	   1.393694	   0.000000; % NG
	2	 0.0	 0.0	 3	   0.000000	   7.142990	   0.000000; % PEL
	2	 0.0	 0.0	 3	   0.000000	   1.214967	   0.000000; % NG
	2	 0.0	 0.0	 3	   0.000000	   0.802609	   0.000000; % NG
	2	 0.0	 0.0	 3	   0.000000	   1.481255	   0.000000; % NG
	2	 0.0	 0.0	 3	   0.000000	   0.566539	   0.000000; % COW
	2	 0.0	 0.0	 3	   0.000000	   0.639474	   0.000000; % COW
	2	 0.0	 0.0	 3	   0.000000	   7.064810	   0.000000; % PEL
	2	 0.0	 0.0	 3	   0.000000	   1.298584	   0.000000; % NG
	2	 0.0	 0.0	 3	   0.000000	   1.519593	   0.000000; % NG
	2	 0.0	 0.0	 3	   0.000000	   7.104392	   0.000000; % PEL
	2	 0.0	 0.0	 3	   0.000000	   7.041181	   0.000000; % PEL
	2	 0.0	 0.0	 3	   0.000000	   0.806854	   0.000000; % COW
	2	 0.0	 0.0	 3	   0.000000	   6.896195	   0.000000; % PEL
	2	 0.0	 0.0	 3	   0.000000	   0.927872	   0.000000; % NG
	2	 0.0	 0.0	 3	   0.000000	   0.892575	   0.000000; % NG
	2	 0.0	 0.0	 3	   0.000000	   1.455099	   0.000000; % NG
	2	 0.0	 0.0	 3	   0.000000	   7.553626	   0.000000; % PEL
	2	 0.0	 0.0	 3	   0.000000	   1.045596	   0.000000; % COW
	2	 0.0	 0.0	 3	   0.000000	   1.053862	   0.000000; % COW
	2	 0.0	 0.0	 3	   0.000000	   0.882767	   0.000000; % NG
	2	 0.0	 0.0	 3	   0.000000	   0.798271	   0.000000; % COW
	2	 0.0	 0.0	 3	   0.000000	   1.133241	   0.000000; % NG
	2	 0.0	 0.0	 3	   0.000000	   6.968820	   0.000000; % PEL
	2	 0.0	 0.0	 3	   0.000000	   6.551336	   0.000000; % PEL
	2	 0.0	 0.0	 3	   0.000000	   6.601040	   0.000000; % PEL
	2	 0.0	 0.0	 3	   0.000000	   1.435932	   0.000000; % NG
	2	 0.0	 0.0	 3	   0.000000	   0.701073	   0.000000; % NG
	2	 0.0	 0.0	 3	   0.000000	   1.277453	   0.000000; % NG
	2	 0.0	 0.0	 3	   0.000000	   1.238469	   0.000000; % NG
	2	 0.0	 0.0	 3	   0.000000	   0.752379	   0.000000; % NG
	2	 0.0	 0.0	 3	   0.000000	   6.923965	   0.000000; % PEL
	2	 0.0	 0.0	 3	   0.000000	   1.185924	   0.000000; % NG
	2	 0.0	 0.0	 3	   0.000000	   6.811213	   0.000000; % PEL
	2	 0.0	 0.0	 3	   0.000000	   0.618845	   0.000000; % NG
	2	 0.0	 0.0	 3	   0.000000	   1.377972	   0.000000; % NG
	2	 0.0	 0.0	 3	   0.000000	   1.161379	   0.000000; % NG
	2	 0.0	 0.0	 3	   0.000000	   1.218494	   0.000000; % NG
	2	 0.0	 0.0	 3	   0.000000	   1.213151	   0.000000; % NG
	2	 0.0	 0.0	 3	   0.000000	   6.738816	   0.000000; % PEL
	2	 0.0	 0.0	 3	   0.000000	   6.656976	   0.000000; % PEL
	2	 0.0	 0.0	 3	   0.000000	   7.052401	   0.000000; % PEL
	2	 0.0	 0.0	 3	   0.000000	   7.025136	   0.000000; % PEL
	2	 0.0	 0.0	 3	   0.000000	   1.205063	   0.000000; % NG
	2	 0.0	 0.0	 3	   0.000000	   1.118787	   0.000000; % NG
	2	 0.0	 0.0	 3	   0.000000	   0.844605	   0.000000; % NG
	2	 0.0	 0.0	 3	   0.000000	   7.429027	   0.000000; % PEL
	2	 0.0	 0.0	 3	   0.000000	   6.795881	   0.000000; % PEL
	2	 0.0	 0.0	 3	   0.000000	   0.937127	   0.000000; % NG
	2	 0.0	 0.0	 3	   0.000000	   1.138066	   0.000000; % NG
	2	 0.0	 0.0	 3	   0.000000	   1.151322	   0.000000; % NG
	2	 0.0	 0.0	 3	   0.000000	   0.765705	   0.000000; % NG
	2	 0.0	 0.0	 3	   0.000000	   1.193201	   0.000000; % NG
	2	 0.0	 0.0	 3	   0.000000	   6.928311	   0.000000; % PEL
	2	 0.0	 0.0	 3	   0.000000	   7.097849	   0.000000; % PEL
	2	 0.0	 0.0	 3	   0.000000	   0.923442	   0.000000; % NG
	2	 0.0	 0.0	 3	   0.000000	   1.210299	   0.000000; % NG
	2	 0.0	 0.0	 3	   0.000000	   1.073938	   0.000000; % NG
	2	 0.0	 0.0	 3	   0.000000	   0.671174	   0.000000; % NG
	2	 0.0	 0.0	 3	   0.000000	   7.085971	   0.000000; % PEL
	2	 0.0	 0.0	 3	   0.000000	   0.434828	   0.000000; % COW
	2	 0.0	 0.0	 3	   0.000000	   1.264890	   0.000000; % NG
	2	 0.0	 0.0	 3	   0.000000	   1.149412	   0.000000; % NG
	2	 0.0	 0.0	 3	   0.000000	   0.833195	   0.000000; % NG
	2	 0.0	 0.0	 3	   0.000000	   1.260286	   0.000000; % NG
	2	 0.0	 0.0	 3	   0.000000	   1.096743	   0.000000; % NG
	2	 0.0	 0.0	 3	   0.000000	   0.692509	   0.000000; % NG
	2	 0.0	 0.0	 3	   0.000000	   1.332032	   0.000000; % NG
	2	 0.0	 0.0	 3	   0.000000	   7.065910	   0.000000; % PEL
	2	 0.0	 0.0	 3	   0.000000	   6.782015	   0.000000; % PEL
	2	 0.0	 0.0	 3	   0.000000	   1.393003	   0.000000; % NG
	2	 0.0	 0.0	 3	   0.000000	   1.250672	   0.000000; % NG
	2	 0.0	 0.0	 3	   0.000000	   1.027508	   0.000000; % NG
	2	 0.0	 0.0	 3	   0.000000	   0.631275	   0.000000; % NG
	2	 0.0	 0.0	 3	   0.000000	   0.968007	   0.000000; % COW
	2	 0.0	 0.0	 3	   0.000000	   7.303276	   0.000000; % PEL
	2	 0.0	 0.0	 3	   0.000000	   0.724124	   0.000000; % NG
	2	 0.0	 0.0	 3	   0.000000	   1.386867	   0.000000; % NG
	2	 0.0	 0.0	 3	   0.000000	   6.752011	   0.000000; % PEL
	2	 0.0	 0.0	 3	   0.000000	   6.339795	   0.000000; % PEL
	2	 0.0	 0.0	 3	   0.000000	   0.835669	   0.000000; % NG
	2	 0.0	 0.0	 3	   0.000000	   1.097292	   0.000000; % NG
	2	 0.0	 0.0	 3	   0.000000	   0.742296	   0.000000; % NG
	2	 0.0	 0.0	 3	   0.000000	   1.062752	   0.000000; % NG
	2	 0.0	 0.0	 3	   0.000000	   0.596807	   0.000000; % COW
...
];

%% branch data
%	fbus	tbus	r	x	b	rateA	rateB	rateC	ratio	angle	status	angmin	angmax
mpc.branch = [
	11	 42404	 0.0036	 0.00391	 0.00207	 100.0	 100.0	 110.0	 0.0	 0.0	 1	 -30.0	 30.0;
	12	 25404	 0.00534	 0.00795	 0.00407	 3604	 3604	 3604	 0.0	 0.0	 1	 -30.0	 30.0;
	12	 25404	 0.00594	 0.00866	 0.00435	 3287	 3287	 3287	 0.0	 0.0	 1	 -30.0	 30.0;
	12	 46504	 0.02132	 0.02114	 0.00329	 1149	 1149	 1149	 0.0	 0.0	 1	 -30.0	 30.0;
	12	 46504	 0.01937	 0.01703	 0.00256	 1338	 1338	 1338	 0.0	 0.0	 1	 -30.0	 30.0;
	1021	 2121	 0.0286	 0.067	 0.0059	 128.0	 128.0	 140.8	 0.0	 0.0	 1	 -30.0	 30.0;
	1021	 2361	 0.0513	 0.1172	 0.0106	 128.0	 128.0	 140.8	 0.0	 0.0	 1	 -30.0	 30.0;
	1021	 3541	 0.0071	 0.037	 0.0116	 125.0	 125.0	 137.5	 0.0	 0.0	 1	 -30.0	 30.0;
	1021	 10210	 0.0	 0.0001	 0.0	 999.0	 999.0	 1098.9	 0.0	 0.0	 1	 -30.0	 30.0;
	1021	 10261	 0.0	 0.0001	 0.0	 128.0	 128.0	 140.8	 0.0	 0.0	 1	 -30.0	 30.0;
	1041	 5481	 0.0049	 0.0107	 0.001	 128.0	 128.0	 140.8	 0.0	 0.0	 1	 -30.0	 30.0;
	1042	 1052	 0.0	 0.0001	 0.0	 9999.0	 9999.0	 10998.9	 0.0	 0.0	 0	 -30.0	 30.0;
	1042	 1062	 0.0	 0.0001	 0.0	 593.0	 593.0	 652.3	 0.0	 0.0	 1	 -30.0	 30.0;
	1042	 1072	 0.0001	 0.0006	 0.0384	 593.0	 593.0	 652.3	 0.0	 0.0	 1	 -30.0	 30.0;
	1042	 3202	 0.003	 0.0222	 0.0335	 534.0	 534.0	 587.4	 0.0	 0.0	 1	 -30.0	 30.0;
	1042	 4722	 0.0012	 0.0078	 0.2591	 534.0	 534.0	 587.4	 0.0	 0.0	 1	 -30.0	 30.0;
	1042	 35771	 0.0001	 0.0004	 0.0265	 593.0	 593.0	 652.3	 0.0	 0.0	 1	 -30.0	 30.0;
	1052	 1062	 0.0	 0.0001	 0.0	 999.0	 999.0	 1098.9	 0.0	 0.0	 0	 -30.0	 30.0;
	1052	 2852	 0.0002	 0.0015	 0.1035	 593.0	 593.0	 652.3	 0.0	 0.0	 1	 -30.0	 30.0;
	1052	 3202	 0.003	 0.0222	 0.0335	 534.0	 534.0	 587.4	 0.0	 0.0	 1	 -30.0	 30.0;
	1061	 10619	 0.0004	 0.0008	 0.0001	 128.0	 128.0	 140.8	 0.0	 0.0	 1	 -30.0	 30.0;
	1062	 1072	 0.0	 0.0001	 0.0	 999.0	 999.0	 1098.9	 0.0	 0.0	 0	 -30.0	 30.0;
	1071	 2231	 0.0125	 0.0276	 0.0026	 128.0	 128.0	 140.8	 0.0	 0.0	 1	 -30.0	 30.0;
	1071	 2361	 0.0594	 0.1314	 0.0123	 128.0	 128.0	 140.8	 0.0	 0.0	 1	 -30.0	 30.0;
	1071	 4941	 0.0718	 0.1589	 0.0148	 128.0	 128.0	 140.8	 0.0	 0.0	 1	 -30.0	 30.0;
	1081	 32810	 0.0039	 0.0123	 0.0035	 68.0	 112.0	 123.2	 0.0	 0.0	 1	 -30.0	 30.0;
	1101	 2161	 0.0031	 0.0069	 0.0006	 45.0	 128.0	 140.8	 0.0	 0.0	 1	 -30.0	 30.0;
	1121	 1301	 0.0102	 0.0787	 0.0071	 166.0	 166.0	 182.6	 0.0	 0.0	 1	 -30.0	 30.0;
	1121	 1541	 0.0207	 0.0952	 0.0102	 137.0	 219.0	 240.9	 0.0	 0.0	 1	 -30.0	 30.0;
	1121	 4901	 0.0035	 0.0077	 0.0008	 57.0	 57.0	 62.7	 0.0	 0.0	 1	 -30.0	 30.0;
	1122	 1742	 0.0062	 0.0462	 0.0697	 534.0	 534.0	 587.4	 0.0	 0.0	 1	 -30.0	 30.0;
	1122	 3642	 0.0046	 0.0338	 0.051	 435.0	 534.0	 587.4	 0.0	 0.0	 1	 -30.0	 30.0;
	1131	 1151	 0.0	 0.0001	 0.0	 219.0	 219.0	 240.9	 0.0	 0.0	 1	 -30.0	 30.0;
	1131	 2131	 0.005	 0.0105	 0.0703	 140.0	 140.0	 154.0	 0.0	 0.0	 1	 -30.0	 30.0;
	1131	 5261	 0.007	 0.0358	 0.0039	 219.0	 219.0	 240.9	 0.0	 0.0	 1	 -30.0	 30.0;
	1141	 1911	 0.0016	 0.0034	 0.0226	 140.0	 140.0	 154.0	 0.0	 0.0	 1	 -30.0	 30.0;
	1141	 3501	 0.054	 0.123	 0.0116	 128.0	 128.0	 140.8	 0.0	 0.0	 1	 -30.0	 30.0;
	1141	 4941	 0.0135	 0.0696	 0.0113	 137.0	 219.0	 240.9	 0.0	 0.0	 1	 -30.0	 30.0;
	1141	 11461	 0.0	 0.0001	 0.0	 128.0	 128.0	 140.8	 0.0	 0.0	 1	 -30.0	 30.0;
	1161	 1781	 0.001	 0.002	 0.0011	 96.0	 96.0	 105.6	 0.0	 0.0	 1	 -30.0	 30.0;
	1161	 3901	 0.0173	 0.0894	 0.0097	 219.0	 219.0	 240.9	 0.0	 0.0	 1	 -30.0	 30.0;
	1161	 5051	 0.0006	 0.0012	 0.0061	 131.0	 131.0	 144.1	 0.0	 0.0	 1	 -30.0	 30.0;
	1161	 5071	 0.0006	 0.0012	 0.0061	 131.0	 131.0	 144.1	 0.0	 0.0	 1	 -30.0	 30.0;
	1161	 17810	 0.001	 0.0021	 0.0012	 96.0	 96.0	 105.6	 0.0	 0.0	 1	 -30.0	 30.0;
	1161	 51410	 0.0214	 0.1105	 0.012	 219.0	 219.0	 240.9	 0.0	 0.0	 1	 -30.0	 30.0;
	1181	 1861	 0.0644	 0.1424	 0.0133	 128.0	 128.0	 140.8	 0.0	 0.0	 1	 -30.0	 30.0;
	1181	 2821	 0.0193	 0.0994	 0.0108	 219.0	 219.0	 240.9	 0.0	 0.0	 1	 -30.0	 30.0;
	1181	 4221	 0.0381	 0.1969	 0.0214	 128.0	 128.0	 140.8	 0.0	 0.0	 1	 -30.0	 30.0;
	1181	 4961	 0.0292	 0.0645	 0.006	 110.0	 110.0	 121.0	 0.0	 0.0	 1	 -30.0	 30.0;
	1181	 4961	 0.0148	 0.0763	 0.0097	 219.0	 219.0	 240.9	 0.0	 0.0	 1	 -30.0	 30.0;
	1201	 2561	 0.0047	 0.0101	 0.0548	 131.0	 131.0	 144.1	 0.0	 0.0	 1	 -30.0	 30.0;
	1201	 3781	 0.0026	 0.0055	 0.0298	 131.0	 131.0	 144.1	 0.0	 0.0	 1	 -30.0	 30.0;
	1221	 1901	 0.0389	 0.086	 0.008	 128.0	 128.0	 140.8	 0.0	 0.0	 1	 -30.0	 30.0;
	1221	 4481	 0.0414	 0.0915	 0.0086	 128.0	 128.0	 140.8	 0.0	 0.0	 1	 -30.0	 30.0;
	1231	 1841	 0.0111	 0.03	 0.1366	 68.0	 116.0	 127.6	 0.0	 0.0	 1	 -30.0	 30.0;
	1251	 2361	 0.0373	 0.0826	 0.0077	 128.0	 128.0	 140.8	 0.0	 0.0	 1	 -30.0	 30.0;
	1251	 52219	 0.0305	 0.0674	 0.0063	 128.0	 128.0	 140.8	 0.0	 0.0	 1	 -30.0	 30.0;
	1271	 2041	 0.0106	 0.0546	 0.006	 219.0	 219.0	 240.9	 0.0	 0.0	 1	 -30.0	 30.0;
	1271	 2181	 0.0126	 0.065	 0.0071	 219.0	 219.0	 240.9	 0.0	 0.0	 1	 -30.0	 30.0;
...